WIDTH=8;
DEPTH=160000;

ADDRESS_RADIX=HEX;
DATA_RADIX=HEX;

CONTENT BEGIN
  0 : 03;
  1 : 03;
  2 : 03;
  3 : 03;
  4 : 03;
  5 : 04;
  6 : 04;
  7 : 04;
  8 : 04;
  9 : 04;
  A : 04;
  B : 04;
  C : 04;
  D : 04;
  E : 04;
  F : 04;
  10 : 04;
  11 : 04;
  12 : 04;
  13 : 04;
  14 : 04;
  15 : 03;
  16 : 02;
  17 : 01;
  18 : 01;
  19 : 02;
  1A : 04;
  1B : 06;
  1C : 07;
  1D : 06;
  1E : 06;
  1F : 05;
  20 : 04;
  21 : 04;
  22 : 04;
  23 : 04;
  24 : 04;
  25 : 04;
  26 : 04;
  27 : 03;
  28 : 02;
  29 : 03;
  2A : 03;
  2B : 02;
  2C : 02;
  2D : 02;
  2E : 04;
  2F : 05;
  30 : 06;
  31 : 05;
  32 : 03;
  33 : 02;
  34 : 02;
  35 : 03;
  36 : 04;
  37 : 05;
  38 : 04;
  39 : 04;
  3A : 03;
  3B : 03;
  3C : 04;
  3D : 05;
  3E : 06;
  3F : 06;
  40 : 05;
  41 : 05;
  42 : 06;
  43 : 06;
  44 : 06;
  45 : 05;
  46 : 05;
  47 : 04;
  48 : 06;
  49 : 05;
  4A : 04;
  4B : 04;
  4C : 04;
  4D : 04;
  4E : 03;
  4F : 01;
  50 : 02;
  51 : 03;
  52 : 04;
  53 : 04;
  54 : 04;
  55 : 04;
  56 : 04;
  57 : 05;
  58 : 04;
  59 : 04;
  5A : 03;
  5B : 03;
  5C : 03;
  5D : 04;
  5E : 04;
  5F : 05;
  60 : 05;
  61 : 05;
  62 : 05;
  63 : 05;
  64 : 05;
  65 : 05;
  66 : 05;
  67 : 05;
  68 : 05;
  69 : 05;
  6A : 05;
  6B : 05;
  6C : 05;
  6D : 05;
  6E : 05;
  6F : 05;
  70 : 04;
  71 : 04;
  72 : 04;
  73 : 04;
  74 : 04;
  75 : 04;
  76 : 05;
  77 : 05;
  78 : 04;
  79 : 03;
  7A : 03;
  7B : 04;
  7C : 05;
  7D : 05;
  7E : 05;
  7F : 05;
  80 : 05;
  81 : 05;
  82 : 05;
  83 : 05;
  84 : 04;
  85 : 04;
  86 : 04;
  87 : 04;
  88 : 05;
  89 : 05;
  8A : 04;
  8B : 04;
  8C : 04;
  8D : 04;
  8E : 04;
  8F : 05;
  90 : 04;
  91 : 04;
  92 : 04;
  93 : 03;
  94 : 03;
  95 : 03;
  96 : 03;
  97 : 03;
  98 : 03;
  99 : 03;
  9A : 04;
  9B : 04;
  9C : 04;
  9D : 04;
  9E : 04;
  9F : 04;
  A0 : 03;
  A1 : 03;
  A2 : 03;
  A3 : 03;
  A4 : 03;
  A5 : 03;
  A6 : 04;
  A7 : 04;
  A8 : 04;
  A9 : 04;
  AA : 05;
  AB : 05;
  AC : 06;
  AD : 05;
  AE : 05;
  AF : 04;
  B0 : 04;
  B1 : 05;
  B2 : 06;
  B3 : 07;
  B4 : 06;
  B5 : 05;
  B6 : 03;
  B7 : 02;
  B8 : 02;
  B9 : 05;
  BA : 06;
  BB : 04;
  BC : 02;
  BD : 03;
  BE : 04;
  BF : 05;
  C0 : 05;
  C1 : 04;
  C2 : 04;
  C3 : 03;
  C4 : 03;
  C5 : 04;
  C6 : 05;
  C7 : 05;
  C8 : 05;
  C9 : 05;
  CA : 05;
  CB : 05;
  CC : 05;
  CD : 05;
  CE : 05;
  CF : 05;
  D0 : 05;
  D1 : 04;
  D2 : 03;
  D3 : 04;
  D4 : 04;
  D5 : 03;
  D6 : 04;
  D7 : 05;
  D8 : 07;
  D9 : 05;
  DA : 03;
  DB : 02;
  DC : 03;
  DD : 04;
  DE : 04;
  DF : 04;
  E0 : 05;
  E1 : 05;
  E2 : 05;
  E3 : 05;
  E4 : 05;
  E5 : 05;
  E6 : 05;
  E7 : 04;
  E8 : 04;
  E9 : 04;
  EA : 04;
  EB : 05;
  EC : 04;
  ED : 03;
  EE : 03;
  EF : 04;
  F0 : 05;
  F1 : 05;
  F2 : 05;
  F3 : 05;
  F4 : 05;
  F5 : 06;
  F6 : 06;
  F7 : 06;
  F8 : 07;
  F9 : 07;
  FA : 07;
  FB : 06;
  FC : 06;
  FD : 06;
  FE : 06;
  FF : 06;
  100 : 06;
  101 : 06;
  102 : 05;
  103 : 04;
  104 : 04;
  105 : 04;
  106 : 04;
  107 : 05;
  108 : 03;
  109 : 04;
  10A : 06;
  10B : 06;
  10C : 04;
  10D : 05;
  10E : 07;
  10F : 05;
  110 : 03;
  111 : 03;
  112 : 04;
  113 : 04;
  114 : 04;
  115 : 04;
  116 : 04;
  117 : 03;
  118 : 04;
  119 : 04;
  11A : 04;
  11B : 04;
  11C : 04;
  11D : 04;
  11E : 04;
  11F : 04;
  120 : 04;
  121 : 04;
  122 : 04;
  123 : 05;
  124 : 05;
  125 : 05;
  126 : 05;
  127 : 05;
  128 : 04;
  129 : 03;
  12A : 03;
  12B : 04;
  12C : 05;
  12D : 06;
  12E : 05;
  12F : 04;
  130 : 05;
  131 : 05;
  132 : 04;
  133 : 04;
  134 : 04;
  135 : 05;
  136 : 06;
  137 : 06;
  138 : 07;
  139 : 06;
  13A : 06;
  13B : 06;
  13C : 06;
  13D : 06;
  13E : 06;
  13F : 06;
  140 : 06;
  141 : 06;
  142 : 05;
  143 : 04;
  144 : 04;
  145 : 04;
  146 : 04;
  147 : 04;
  148 : 04;
  149 : 04;
  14A : 04;
  14B : 04;
  14C : 04;
  14D : 04;
  14E : 04;
  14F : 04;
  150 : 05;
  151 : 04;
  152 : 03;
  153 : 04;
  154 : 06;
  155 : 07;
  156 : 07;
  157 : 07;
  158 : 06;
  159 : 05;
  15A : 05;
  15B : 05;
  15C : 06;
  15D : 06;
  15E : 05;
  15F : 05;
  160 : 05;
  161 : 05;
  162 : 05;
  163 : 05;
  164 : 05;
  165 : 04;
  166 : 04;
  167 : 04;
  168 : 03;
  169 : 03;
  16A : 03;
  16B : 03;
  16C : 04;
  16D : 04;
  16E : 04;
  16F : 04;
  170 : 05;
  171 : 05;
  172 : 06;
  173 : 06;
  174 : 06;
  175 : 05;
  176 : 04;
  177 : 04;
  178 : 03;
  179 : 02;
  17A : 01;
  17B : 02;
  17C : 03;
  17D : 05;
  17E : 06;
  17F : 06;
  180 : 04;
  181 : 02;
  182 : 01;
  183 : 03;
  184 : 04;
  185 : 04;
  186 : 04;
  187 : 05;
  188 : 07;
  189 : 06;
  18A : 04;
  18B : 01;
  18C : 02;
  18D : 04;
  18E : 05;
  18F : 04;
  190 : 02;
  191 : 02;
  192 : 02;
  193 : 03;
  194 : 03;
  195 : 03;
  196 : 03;
  197 : 03;
  198 : 04;
  199 : 04;
  19A : 04;
  19B : 04;
  19C : 04;
  19D : 04;
  19E : 04;
  19F : 04;
  1A0 : 04;
  1A1 : 04;
  1A2 : 04;
  1A3 : 04;
  1A4 : 04;
  1A5 : 04;
  1A6 : 03;
  1A7 : 03;
  1A8 : 03;
  1A9 : 04;
  1AA : 05;
  1AB : 06;
  1AC : 07;
  1AD : 06;
  1AE : 06;
  1AF : 05;
  1B0 : 04;
  1B1 : 04;
  1B2 : 04;
  1B3 : 04;
  1B4 : 04;
  1B5 : 04;
  1B6 : 04;
  1B7 : 03;
  1B8 : 03;
  1B9 : 03;
  1BA : 02;
  1BB : 02;
  1BC : 02;
  1BD : 03;
  1BE : 03;
  1BF : 04;
  1C0 : 06;
  1C1 : 05;
  1C2 : 04;
  1C3 : 03;
  1C4 : 02;
  1C5 : 03;
  1C6 : 04;
  1C7 : 05;
  1C8 : 06;
  1C9 : 06;
  1CA : 05;
  1CB : 05;
  1CC : 05;
  1CD : 06;
  1CE : 06;
  1CF : 07;
  1D0 : 06;
  1D1 : 06;
  1D2 : 06;
  1D3 : 06;
  1D4 : 06;
  1D5 : 06;
  1D6 : 05;
  1D7 : 05;
  1D8 : 05;
  1D9 : 05;
  1DA : 04;
  1DB : 04;
  1DC : 04;
  1DD : 04;
  1DE : 03;
  1DF : 02;
  1E0 : 02;
  1E1 : 03;
  1E2 : 04;
  1E3 : 04;
  1E4 : 04;
  1E5 : 04;
  1E6 : 04;
  1E7 : 04;
  1E8 : 04;
  1E9 : 04;
  1EA : 03;
  1EB : 03;
  1EC : 03;
  1ED : 04;
  1EE : 04;
  1EF : 05;
  1F0 : 05;
  1F1 : 05;
  1F2 : 05;
  1F3 : 05;
  1F4 : 05;
  1F5 : 05;
  1F6 : 05;
  1F7 : 05;
  1F8 : 05;
  1F9 : 05;
  1FA : 05;
  1FB : 05;
  1FC : 05;
  1FD : 05;
  1FE : 05;
  1FF : 05;
  200 : 04;
  201 : 04;
  202 : 04;
  203 : 04;
  204 : 04;
  205 : 04;
  206 : 05;
  207 : 05;
  208 : 04;
  209 : 03;
  20A : 03;
  20B : 04;
  20C : 05;
  20D : 05;
  20E : 05;
  20F : 05;
  210 : 05;
  211 : 05;
  212 : 05;
  213 : 05;
  214 : 04;
  215 : 04;
  216 : 04;
  217 : 04;
  218 : 04;
  219 : 04;
  21A : 04;
  21B : 03;
  21C : 03;
  21D : 04;
  21E : 04;
  21F : 04;
  220 : 04;
  221 : 04;
  222 : 03;
  223 : 03;
  224 : 03;
  225 : 03;
  226 : 03;
  227 : 03;
  228 : 03;
  229 : 03;
  22A : 03;
  22B : 04;
  22C : 04;
  22D : 04;
  22E : 04;
  22F : 03;
  230 : 03;
  231 : 03;
  232 : 03;
  233 : 03;
  234 : 03;
  235 : 03;
  236 : 03;
  237 : 04;
  238 : 04;
  239 : 04;
  23A : 05;
  23B : 06;
  23C : 06;
  23D : 05;
  23E : 05;
  23F : 04;
  240 : 04;
  241 : 05;
  242 : 06;
  243 : 06;
  244 : 06;
  245 : 05;
  246 : 03;
  247 : 02;
  248 : 03;
  249 : 05;
  24A : 06;
  24B : 04;
  24C : 02;
  24D : 03;
  24E : 05;
  24F : 06;
  250 : 05;
  251 : 04;
  252 : 04;
  253 : 03;
  254 : 03;
  255 : 04;
  256 : 04;
  257 : 05;
  258 : 05;
  259 : 05;
  25A : 05;
  25B : 05;
  25C : 05;
  25D : 05;
  25E : 05;
  25F : 05;
  260 : 05;
  261 : 04;
  262 : 04;
  263 : 04;
  264 : 04;
  265 : 04;
  266 : 04;
  267 : 05;
  268 : 07;
  269 : 05;
  26A : 04;
  26B : 03;
  26C : 03;
  26D : 04;
  26E : 04;
  26F : 04;
  270 : 05;
  271 : 05;
  272 : 05;
  273 : 05;
  274 : 05;
  275 : 05;
  276 : 04;
  277 : 04;
  278 : 04;
  279 : 04;
  27A : 04;
  27B : 05;
  27C : 04;
  27D : 03;
  27E : 03;
  27F : 04;
  280 : 05;
  281 : 05;
  282 : 05;
  283 : 05;
  284 : 05;
  285 : 06;
  286 : 06;
  287 : 06;
  288 : 06;
  289 : 06;
  28A : 06;
  28B : 06;
  28C : 06;
  28D : 06;
  28E : 06;
  28F : 06;
  290 : 06;
  291 : 05;
  292 : 05;
  293 : 04;
  294 : 04;
  295 : 04;
  296 : 04;
  297 : 04;
  298 : 02;
  299 : 03;
  29A : 06;
  29B : 06;
  29C : 04;
  29D : 06;
  29E : 08;
  29F : 07;
  2A0 : 04;
  2A1 : 04;
  2A2 : 05;
  2A3 : 05;
  2A4 : 05;
  2A5 : 04;
  2A6 : 04;
  2A7 : 04;
  2A8 : 04;
  2A9 : 04;
  2AA : 04;
  2AB : 04;
  2AC : 04;
  2AD : 04;
  2AE : 04;
  2AF : 04;
  2B0 : 04;
  2B1 : 04;
  2B2 : 04;
  2B3 : 04;
  2B4 : 04;
  2B5 : 04;
  2B6 : 04;
  2B7 : 04;
  2B8 : 04;
  2B9 : 04;
  2BA : 04;
  2BB : 04;
  2BC : 05;
  2BD : 05;
  2BE : 05;
  2BF : 05;
  2C0 : 05;
  2C1 : 05;
  2C2 : 04;
  2C3 : 04;
  2C4 : 04;
  2C5 : 05;
  2C6 : 06;
  2C7 : 06;
  2C8 : 06;
  2C9 : 06;
  2CA : 05;
  2CB : 05;
  2CC : 05;
  2CD : 05;
  2CE : 05;
  2CF : 05;
  2D0 : 06;
  2D1 : 06;
  2D2 : 05;
  2D3 : 05;
  2D4 : 04;
  2D5 : 04;
  2D6 : 04;
  2D7 : 04;
  2D8 : 04;
  2D9 : 04;
  2DA : 04;
  2DB : 04;
  2DC : 04;
  2DD : 04;
  2DE : 04;
  2DF : 04;
  2E0 : 04;
  2E1 : 04;
  2E2 : 03;
  2E3 : 04;
  2E4 : 05;
  2E5 : 06;
  2E6 : 06;
  2E7 : 06;
  2E8 : 05;
  2E9 : 04;
  2EA : 04;
  2EB : 04;
  2EC : 05;
  2ED : 06;
  2EE : 06;
  2EF : 05;
  2F0 : 07;
  2F1 : 07;
  2F2 : 06;
  2F3 : 06;
  2F4 : 05;
  2F5 : 04;
  2F6 : 03;
  2F7 : 03;
  2F8 : 03;
  2F9 : 04;
  2FA : 04;
  2FB : 04;
  2FC : 04;
  2FD : 04;
  2FE : 04;
  2FF : 04;
  300 : 04;
  301 : 05;
  302 : 05;
  303 : 05;
  304 : 06;
  305 : 06;
  306 : 06;
  307 : 06;
  308 : 04;
  309 : 03;
  30A : 03;
  30B : 03;
  30C : 04;
  30D : 05;
  30E : 06;
  30F : 06;
  310 : 05;
  311 : 03;
  312 : 02;
  313 : 03;
  314 : 04;
  315 : 04;
  316 : 04;
  317 : 05;
  318 : 05;
  319 : 05;
  31A : 04;
  31B : 02;
  31C : 03;
  31D : 06;
  31E : 06;
  31F : 06;
  320 : 03;
  321 : 03;
  322 : 03;
  323 : 03;
  324 : 03;
  325 : 03;
  326 : 03;
  327 : 03;
  328 : 04;
  329 : 04;
  32A : 04;
  32B : 04;
  32C : 04;
  32D : 04;
  32E : 04;
  32F : 04;
  330 : 03;
  331 : 04;
  332 : 04;
  333 : 05;
  334 : 05;
  335 : 05;
  336 : 05;
  337 : 05;
  338 : 04;
  339 : 05;
  33A : 06;
  33B : 07;
  33C : 07;
  33D : 06;
  33E : 05;
  33F : 05;
  340 : 04;
  341 : 04;
  342 : 04;
  343 : 04;
  344 : 04;
  345 : 04;
  346 : 04;
  347 : 04;
  348 : 04;
  349 : 03;
  34A : 02;
  34B : 02;
  34C : 03;
  34D : 04;
  34E : 04;
  34F : 03;
  350 : 05;
  351 : 04;
  352 : 04;
  353 : 03;
  354 : 03;
  355 : 04;
  356 : 04;
  357 : 04;
  358 : 06;
  359 : 06;
  35A : 05;
  35B : 05;
  35C : 05;
  35D : 06;
  35E : 06;
  35F : 06;
  360 : 06;
  361 : 06;
  362 : 06;
  363 : 06;
  364 : 06;
  365 : 06;
  366 : 05;
  367 : 05;
  368 : 05;
  369 : 05;
  36A : 04;
  36B : 04;
  36C : 05;
  36D : 04;
  36E : 04;
  36F : 03;
  370 : 03;
  371 : 04;
  372 : 04;
  373 : 04;
  374 : 04;
  375 : 04;
  376 : 04;
  377 : 04;
  378 : 04;
  379 : 04;
  37A : 03;
  37B : 03;
  37C : 03;
  37D : 04;
  37E : 04;
  37F : 05;
  380 : 05;
  381 : 05;
  382 : 05;
  383 : 05;
  384 : 05;
  385 : 05;
  386 : 05;
  387 : 05;
  388 : 04;
  389 : 05;
  38A : 05;
  38B : 05;
  38C : 05;
  38D : 05;
  38E : 05;
  38F : 05;
  390 : 04;
  391 : 04;
  392 : 04;
  393 : 04;
  394 : 04;
  395 : 04;
  396 : 05;
  397 : 05;
  398 : 04;
  399 : 03;
  39A : 03;
  39B : 04;
  39C : 05;
  39D : 05;
  39E : 05;
  39F : 05;
  3A0 : 05;
  3A1 : 05;
  3A2 : 05;
  3A3 : 05;
  3A4 : 04;
  3A5 : 04;
  3A6 : 04;
  3A7 : 04;
  3A8 : 05;
  3A9 : 04;
  3AA : 04;
  3AB : 04;
  3AC : 04;
  3AD : 04;
  3AE : 04;
  3AF : 04;
  3B0 : 04;
  3B1 : 04;
  3B2 : 03;
  3B3 : 03;
  3B4 : 03;
  3B5 : 03;
  3B6 : 03;
  3B7 : 03;
  3B8 : 02;
  3B9 : 03;
  3BA : 03;
  3BB : 03;
  3BC : 03;
  3BD : 03;
  3BE : 03;
  3BF : 03;
  3C0 : 03;
  3C1 : 03;
  3C2 : 03;
  3C3 : 03;
  3C4 : 03;
  3C5 : 04;
  3C6 : 04;
  3C7 : 04;
  3C8 : 04;
  3C9 : 04;
  3CA : 06;
  3CB : 07;
  3CC : 06;
  3CD : 06;
  3CE : 04;
  3CF : 03;
  3D0 : 05;
  3D1 : 05;
  3D2 : 06;
  3D3 : 06;
  3D4 : 05;
  3D5 : 04;
  3D6 : 03;
  3D7 : 03;
  3D8 : 03;
  3D9 : 05;
  3DA : 06;
  3DB : 04;
  3DC : 02;
  3DD : 03;
  3DE : 05;
  3DF : 06;
  3E0 : 05;
  3E1 : 04;
  3E2 : 04;
  3E3 : 03;
  3E4 : 03;
  3E5 : 04;
  3E6 : 04;
  3E7 : 05;
  3E8 : 05;
  3E9 : 05;
  3EA : 05;
  3EB : 05;
  3EC : 05;
  3ED : 05;
  3EE : 05;
  3EF : 05;
  3F0 : 05;
  3F1 : 04;
  3F2 : 04;
  3F3 : 04;
  3F4 : 04;
  3F5 : 04;
  3F6 : 04;
  3F7 : 05;
  3F8 : 07;
  3F9 : 06;
  3FA : 04;
  3FB : 03;
  3FC : 04;
  3FD : 04;
  3FE : 05;
  3FF : 05;
  400 : 05;
  401 : 05;
  402 : 05;
  403 : 05;
  404 : 05;
  405 : 05;
  406 : 04;
  407 : 04;
  408 : 04;
  409 : 04;
  40A : 04;
  40B : 05;
  40C : 04;
  40D : 03;
  40E : 03;
  40F : 04;
  410 : 04;
  411 : 05;
  412 : 05;
  413 : 05;
  414 : 05;
  415 : 06;
  416 : 06;
  417 : 06;
  418 : 06;
  419 : 06;
  41A : 06;
  41B : 06;
  41C : 06;
  41D : 05;
  41E : 05;
  41F : 05;
  420 : 06;
  421 : 05;
  422 : 05;
  423 : 04;
  424 : 04;
  425 : 04;
  426 : 04;
  427 : 04;
  428 : 01;
  429 : 02;
  42A : 06;
  42B : 06;
  42C : 04;
  42D : 06;
  42E : 09;
  42F : 08;
  430 : 05;
  431 : 06;
  432 : 06;
  433 : 06;
  434 : 05;
  435 : 05;
  436 : 05;
  437 : 04;
  438 : 03;
  439 : 03;
  43A : 04;
  43B : 04;
  43C : 04;
  43D : 04;
  43E : 04;
  43F : 04;
  440 : 04;
  441 : 04;
  442 : 04;
  443 : 03;
  444 : 03;
  445 : 03;
  446 : 04;
  447 : 04;
  448 : 04;
  449 : 05;
  44A : 05;
  44B : 05;
  44C : 04;
  44D : 04;
  44E : 05;
  44F : 05;
  450 : 05;
  451 : 04;
  452 : 04;
  453 : 04;
  454 : 04;
  455 : 05;
  456 : 06;
  457 : 06;
  458 : 06;
  459 : 05;
  45A : 05;
  45B : 05;
  45C : 05;
  45D : 05;
  45E : 05;
  45F : 05;
  460 : 06;
  461 : 05;
  462 : 05;
  463 : 04;
  464 : 04;
  465 : 04;
  466 : 04;
  467 : 04;
  468 : 04;
  469 : 04;
  46A : 04;
  46B : 04;
  46C : 04;
  46D : 04;
  46E : 04;
  46F : 04;
  470 : 04;
  471 : 03;
  472 : 03;
  473 : 03;
  474 : 04;
  475 : 05;
  476 : 05;
  477 : 05;
  478 : 04;
  479 : 04;
  47A : 04;
  47B : 05;
  47C : 06;
  47D : 07;
  47E : 07;
  47F : 07;
  480 : 07;
  481 : 07;
  482 : 06;
  483 : 06;
  484 : 05;
  485 : 04;
  486 : 03;
  487 : 03;
  488 : 03;
  489 : 04;
  48A : 04;
  48B : 04;
  48C : 04;
  48D : 04;
  48E : 04;
  48F : 04;
  490 : 05;
  491 : 05;
  492 : 05;
  493 : 05;
  494 : 06;
  495 : 06;
  496 : 06;
  497 : 07;
  498 : 05;
  499 : 04;
  49A : 04;
  49B : 04;
  49C : 05;
  49D : 05;
  49E : 05;
  49F : 05;
  4A0 : 05;
  4A1 : 03;
  4A2 : 03;
  4A3 : 03;
  4A4 : 04;
  4A5 : 03;
  4A6 : 04;
  4A7 : 04;
  4A8 : 05;
  4A9 : 05;
  4AA : 04;
  4AB : 04;
  4AC : 04;
  4AD : 06;
  4AE : 06;
  4AF : 05;
  4B0 : 04;
  4B1 : 04;
  4B2 : 04;
  4B3 : 04;
  4B4 : 04;
  4B5 : 04;
  4B6 : 04;
  4B7 : 04;
  4B8 : 04;
  4B9 : 04;
  4BA : 04;
  4BB : 04;
  4BC : 04;
  4BD : 04;
  4BE : 04;
  4BF : 04;
  4C0 : 03;
  4C1 : 04;
  4C2 : 05;
  4C3 : 05;
  4C4 : 04;
  4C5 : 04;
  4C6 : 05;
  4C7 : 05;
  4C8 : 05;
  4C9 : 06;
  4CA : 06;
  4CB : 06;
  4CC : 06;
  4CD : 05;
  4CE : 04;
  4CF : 04;
  4D0 : 04;
  4D1 : 04;
  4D2 : 04;
  4D3 : 04;
  4D4 : 04;
  4D5 : 04;
  4D6 : 04;
  4D7 : 04;
  4D8 : 05;
  4D9 : 03;
  4DA : 01;
  4DB : 02;
  4DC : 05;
  4DD : 06;
  4DE : 05;
  4DF : 03;
  4E0 : 04;
  4E1 : 04;
  4E2 : 04;
  4E3 : 04;
  4E4 : 04;
  4E5 : 04;
  4E6 : 04;
  4E7 : 03;
  4E8 : 04;
  4E9 : 04;
  4EA : 03;
  4EB : 03;
  4EC : 04;
  4ED : 04;
  4EE : 05;
  4EF : 05;
  4F0 : 04;
  4F1 : 05;
  4F2 : 05;
  4F3 : 05;
  4F4 : 05;
  4F5 : 04;
  4F6 : 04;
  4F7 : 04;
  4F8 : 05;
  4F9 : 05;
  4FA : 05;
  4FB : 05;
  4FC : 05;
  4FD : 04;
  4FE : 04;
  4FF : 04;
  500 : 04;
  501 : 04;
  502 : 04;
  503 : 04;
  504 : 04;
  505 : 04;
  506 : 04;
  507 : 04;
  508 : 04;
  509 : 04;
  50A : 03;
  50B : 03;
  50C : 03;
  50D : 04;
  50E : 04;
  50F : 05;
  510 : 05;
  511 : 05;
  512 : 05;
  513 : 05;
  514 : 05;
  515 : 05;
  516 : 05;
  517 : 05;
  518 : 05;
  519 : 05;
  51A : 05;
  51B : 05;
  51C : 05;
  51D : 04;
  51E : 04;
  51F : 04;
  520 : 04;
  521 : 04;
  522 : 04;
  523 : 04;
  524 : 04;
  525 : 04;
  526 : 05;
  527 : 05;
  528 : 04;
  529 : 03;
  52A : 03;
  52B : 04;
  52C : 05;
  52D : 05;
  52E : 05;
  52F : 05;
  530 : 05;
  531 : 05;
  532 : 05;
  533 : 05;
  534 : 04;
  535 : 04;
  536 : 04;
  537 : 04;
  538 : 05;
  539 : 05;
  53A : 05;
  53B : 04;
  53C : 04;
  53D : 04;
  53E : 04;
  53F : 04;
  540 : 04;
  541 : 04;
  542 : 04;
  543 : 04;
  544 : 04;
  545 : 04;
  546 : 04;
  547 : 04;
  548 : 04;
  549 : 04;
  54A : 04;
  54B : 05;
  54C : 05;
  54D : 05;
  54E : 05;
  54F : 05;
  550 : 04;
  551 : 04;
  552 : 04;
  553 : 04;
  554 : 04;
  555 : 04;
  556 : 04;
  557 : 04;
  558 : 03;
  559 : 04;
  55A : 06;
  55B : 07;
  55C : 06;
  55D : 05;
  55E : 04;
  55F : 03;
  560 : 04;
  561 : 05;
  562 : 06;
  563 : 06;
  564 : 06;
  565 : 05;
  566 : 03;
  567 : 02;
  568 : 04;
  569 : 05;
  56A : 05;
  56B : 03;
  56C : 02;
  56D : 03;
  56E : 05;
  56F : 06;
  570 : 05;
  571 : 05;
  572 : 04;
  573 : 04;
  574 : 04;
  575 : 04;
  576 : 04;
  577 : 05;
  578 : 04;
  579 : 04;
  57A : 05;
  57B : 05;
  57C : 05;
  57D : 05;
  57E : 05;
  57F : 05;
  580 : 05;
  581 : 04;
  582 : 03;
  583 : 04;
  584 : 04;
  585 : 03;
  586 : 04;
  587 : 05;
  588 : 07;
  589 : 06;
  58A : 05;
  58B : 04;
  58C : 04;
  58D : 05;
  58E : 05;
  58F : 05;
  590 : 05;
  591 : 05;
  592 : 05;
  593 : 05;
  594 : 05;
  595 : 05;
  596 : 04;
  597 : 04;
  598 : 04;
  599 : 04;
  59A : 04;
  59B : 05;
  59C : 04;
  59D : 03;
  59E : 03;
  59F : 04;
  5A0 : 04;
  5A1 : 05;
  5A2 : 05;
  5A3 : 05;
  5A4 : 05;
  5A5 : 05;
  5A6 : 05;
  5A7 : 05;
  5A8 : 05;
  5A9 : 05;
  5AA : 05;
  5AB : 05;
  5AC : 05;
  5AD : 05;
  5AE : 05;
  5AF : 05;
  5B0 : 05;
  5B1 : 05;
  5B2 : 04;
  5B3 : 04;
  5B4 : 04;
  5B5 : 04;
  5B6 : 04;
  5B7 : 04;
  5B8 : 02;
  5B9 : 03;
  5BA : 06;
  5BB : 06;
  5BC : 04;
  5BD : 06;
  5BE : 09;
  5BF : 08;
  5C0 : 06;
  5C1 : 06;
  5C2 : 06;
  5C3 : 06;
  5C4 : 06;
  5C5 : 05;
  5C6 : 05;
  5C7 : 04;
  5C8 : 03;
  5C9 : 03;
  5CA : 04;
  5CB : 04;
  5CC : 04;
  5CD : 04;
  5CE : 04;
  5CF : 04;
  5D0 : 04;
  5D1 : 04;
  5D2 : 03;
  5D3 : 03;
  5D4 : 03;
  5D5 : 03;
  5D6 : 04;
  5D7 : 04;
  5D8 : 04;
  5D9 : 05;
  5DA : 05;
  5DB : 05;
  5DC : 04;
  5DD : 03;
  5DE : 04;
  5DF : 05;
  5E0 : 04;
  5E1 : 04;
  5E2 : 04;
  5E3 : 04;
  5E4 : 04;
  5E5 : 05;
  5E6 : 06;
  5E7 : 06;
  5E8 : 06;
  5E9 : 05;
  5EA : 05;
  5EB : 05;
  5EC : 04;
  5ED : 05;
  5EE : 05;
  5EF : 05;
  5F0 : 05;
  5F1 : 05;
  5F2 : 04;
  5F3 : 04;
  5F4 : 03;
  5F5 : 03;
  5F6 : 03;
  5F7 : 03;
  5F8 : 04;
  5F9 : 04;
  5FA : 04;
  5FB : 04;
  5FC : 04;
  5FD : 04;
  5FE : 04;
  5FF : 04;
  600 : 04;
  601 : 04;
  602 : 03;
  603 : 03;
  604 : 04;
  605 : 04;
  606 : 04;
  607 : 04;
  608 : 04;
  609 : 04;
  60A : 04;
  60B : 05;
  60C : 05;
  60D : 06;
  60E : 06;
  60F : 06;
  610 : 04;
  611 : 04;
  612 : 05;
  613 : 05;
  614 : 05;
  615 : 05;
  616 : 04;
  617 : 04;
  618 : 03;
  619 : 03;
  61A : 04;
  61B : 04;
  61C : 04;
  61D : 04;
  61E : 04;
  61F : 04;
  620 : 04;
  621 : 04;
  622 : 04;
  623 : 03;
  624 : 03;
  625 : 04;
  626 : 04;
  627 : 05;
  628 : 05;
  629 : 05;
  62A : 05;
  62B : 04;
  62C : 04;
  62D : 04;
  62E : 04;
  62F : 04;
  630 : 05;
  631 : 04;
  632 : 04;
  633 : 03;
  634 : 03;
  635 : 03;
  636 : 03;
  637 : 04;
  638 : 05;
  639 : 05;
  63A : 05;
  63B : 05;
  63C : 04;
  63D : 04;
  63E : 04;
  63F : 03;
  640 : 05;
  641 : 05;
  642 : 05;
  643 : 05;
  644 : 05;
  645 : 05;
  646 : 05;
  647 : 05;
  648 : 04;
  649 : 04;
  64A : 04;
  64B : 04;
  64C : 04;
  64D : 04;
  64E : 04;
  64F : 04;
  650 : 04;
  651 : 04;
  652 : 05;
  653 : 04;
  654 : 03;
  655 : 03;
  656 : 04;
  657 : 04;
  658 : 06;
  659 : 06;
  65A : 05;
  65B : 05;
  65C : 04;
  65D : 04;
  65E : 04;
  65F : 04;
  660 : 04;
  661 : 04;
  662 : 04;
  663 : 04;
  664 : 04;
  665 : 04;
  666 : 04;
  667 : 04;
  668 : 05;
  669 : 03;
  66A : 02;
  66B : 03;
  66C : 06;
  66D : 07;
  66E : 06;
  66F : 05;
  670 : 03;
  671 : 03;
  672 : 04;
  673 : 05;
  674 : 05;
  675 : 04;
  676 : 04;
  677 : 03;
  678 : 02;
  679 : 02;
  67A : 02;
  67B : 02;
  67C : 02;
  67D : 03;
  67E : 04;
  67F : 04;
  680 : 04;
  681 : 04;
  682 : 04;
  683 : 04;
  684 : 04;
  685 : 04;
  686 : 04;
  687 : 04;
  688 : 05;
  689 : 05;
  68A : 05;
  68B : 05;
  68C : 05;
  68D : 05;
  68E : 05;
  68F : 05;
  690 : 05;
  691 : 05;
  692 : 05;
  693 : 04;
  694 : 04;
  695 : 04;
  696 : 04;
  697 : 04;
  698 : 04;
  699 : 04;
  69A : 03;
  69B : 03;
  69C : 03;
  69D : 04;
  69E : 04;
  69F : 05;
  6A0 : 05;
  6A1 : 05;
  6A2 : 05;
  6A3 : 05;
  6A4 : 05;
  6A5 : 05;
  6A6 : 05;
  6A7 : 05;
  6A8 : 07;
  6A9 : 06;
  6AA : 06;
  6AB : 05;
  6AC : 05;
  6AD : 04;
  6AE : 04;
  6AF : 03;
  6B0 : 04;
  6B1 : 04;
  6B2 : 04;
  6B3 : 04;
  6B4 : 04;
  6B5 : 04;
  6B6 : 05;
  6B7 : 05;
  6B8 : 04;
  6B9 : 03;
  6BA : 03;
  6BB : 04;
  6BC : 05;
  6BD : 05;
  6BE : 05;
  6BF : 05;
  6C0 : 05;
  6C1 : 05;
  6C2 : 05;
  6C3 : 05;
  6C4 : 04;
  6C5 : 04;
  6C6 : 04;
  6C7 : 04;
  6C8 : 04;
  6C9 : 04;
  6CA : 04;
  6CB : 04;
  6CC : 04;
  6CD : 04;
  6CE : 04;
  6CF : 04;
  6D0 : 04;
  6D1 : 05;
  6D2 : 05;
  6D3 : 05;
  6D4 : 05;
  6D5 : 05;
  6D6 : 05;
  6D7 : 05;
  6D8 : 06;
  6D9 : 06;
  6DA : 06;
  6DB : 06;
  6DC : 06;
  6DD : 06;
  6DE : 06;
  6DF : 06;
  6E0 : 05;
  6E1 : 05;
  6E2 : 05;
  6E3 : 05;
  6E4 : 05;
  6E5 : 05;
  6E6 : 05;
  6E7 : 05;
  6E8 : 03;
  6E9 : 04;
  6EA : 05;
  6EB : 06;
  6EC : 06;
  6ED : 05;
  6EE : 04;
  6EF : 03;
  6F0 : 04;
  6F1 : 05;
  6F2 : 06;
  6F3 : 07;
  6F4 : 07;
  6F5 : 05;
  6F6 : 02;
  6F7 : 01;
  6F8 : 03;
  6F9 : 05;
  6FA : 05;
  6FB : 03;
  6FC : 02;
  6FD : 03;
  6FE : 04;
  6FF : 05;
  700 : 05;
  701 : 05;
  702 : 05;
  703 : 05;
  704 : 04;
  705 : 04;
  706 : 05;
  707 : 05;
  708 : 03;
  709 : 04;
  70A : 04;
  70B : 05;
  70C : 05;
  70D : 05;
  70E : 05;
  70F : 05;
  710 : 05;
  711 : 03;
  712 : 03;
  713 : 04;
  714 : 04;
  715 : 03;
  716 : 03;
  717 : 05;
  718 : 08;
  719 : 06;
  71A : 05;
  71B : 04;
  71C : 05;
  71D : 05;
  71E : 05;
  71F : 05;
  720 : 05;
  721 : 05;
  722 : 05;
  723 : 05;
  724 : 05;
  725 : 05;
  726 : 05;
  727 : 04;
  728 : 04;
  729 : 04;
  72A : 04;
  72B : 05;
  72C : 04;
  72D : 03;
  72E : 03;
  72F : 04;
  730 : 04;
  731 : 05;
  732 : 05;
  733 : 05;
  734 : 05;
  735 : 05;
  736 : 05;
  737 : 05;
  738 : 04;
  739 : 04;
  73A : 04;
  73B : 04;
  73C : 04;
  73D : 04;
  73E : 04;
  73F : 04;
  740 : 05;
  741 : 05;
  742 : 04;
  743 : 04;
  744 : 04;
  745 : 04;
  746 : 04;
  747 : 04;
  748 : 04;
  749 : 04;
  74A : 06;
  74B : 06;
  74C : 03;
  74D : 05;
  74E : 07;
  74F : 06;
  750 : 06;
  751 : 06;
  752 : 06;
  753 : 06;
  754 : 05;
  755 : 05;
  756 : 04;
  757 : 04;
  758 : 04;
  759 : 04;
  75A : 04;
  75B : 04;
  75C : 04;
  75D : 04;
  75E : 04;
  75F : 04;
  760 : 04;
  761 : 04;
  762 : 03;
  763 : 03;
  764 : 03;
  765 : 03;
  766 : 04;
  767 : 04;
  768 : 03;
  769 : 04;
  76A : 05;
  76B : 04;
  76C : 03;
  76D : 02;
  76E : 03;
  76F : 04;
  770 : 04;
  771 : 04;
  772 : 04;
  773 : 04;
  774 : 05;
  775 : 05;
  776 : 06;
  777 : 06;
  778 : 06;
  779 : 06;
  77A : 05;
  77B : 05;
  77C : 05;
  77D : 05;
  77E : 05;
  77F : 05;
  780 : 04;
  781 : 04;
  782 : 03;
  783 : 03;
  784 : 03;
  785 : 03;
  786 : 03;
  787 : 03;
  788 : 04;
  789 : 04;
  78A : 04;
  78B : 04;
  78C : 04;
  78D : 04;
  78E : 04;
  78F : 04;
  790 : 04;
  791 : 04;
  792 : 04;
  793 : 04;
  794 : 04;
  795 : 04;
  796 : 04;
  797 : 05;
  798 : 04;
  799 : 04;
  79A : 04;
  79B : 04;
  79C : 04;
  79D : 04;
  79E : 04;
  79F : 04;
  7A0 : 03;
  7A1 : 03;
  7A2 : 04;
  7A3 : 04;
  7A4 : 04;
  7A5 : 04;
  7A6 : 03;
  7A7 : 03;
  7A8 : 03;
  7A9 : 03;
  7AA : 03;
  7AB : 04;
  7AC : 04;
  7AD : 04;
  7AE : 04;
  7AF : 03;
  7B0 : 02;
  7B1 : 02;
  7B2 : 02;
  7B3 : 02;
  7B4 : 02;
  7B5 : 03;
  7B6 : 04;
  7B7 : 05;
  7B8 : 06;
  7B9 : 06;
  7BA : 06;
  7BB : 06;
  7BC : 05;
  7BD : 04;
  7BE : 04;
  7BF : 04;
  7C0 : 05;
  7C1 : 05;
  7C2 : 04;
  7C3 : 03;
  7C4 : 03;
  7C5 : 03;
  7C6 : 03;
  7C7 : 04;
  7C8 : 03;
  7C9 : 04;
  7CA : 04;
  7CB : 05;
  7CC : 04;
  7CD : 03;
  7CE : 02;
  7CF : 02;
  7D0 : 05;
  7D1 : 05;
  7D2 : 05;
  7D3 : 05;
  7D4 : 05;
  7D5 : 05;
  7D6 : 04;
  7D7 : 04;
  7D8 : 04;
  7D9 : 04;
  7DA : 04;
  7DB : 04;
  7DC : 04;
  7DD : 04;
  7DE : 04;
  7DF : 04;
  7E0 : 04;
  7E1 : 05;
  7E2 : 05;
  7E3 : 04;
  7E4 : 03;
  7E5 : 02;
  7E6 : 03;
  7E7 : 04;
  7E8 : 05;
  7E9 : 05;
  7EA : 04;
  7EB : 04;
  7EC : 03;
  7ED : 03;
  7EE : 03;
  7EF : 04;
  7F0 : 04;
  7F1 : 03;
  7F2 : 03;
  7F3 : 04;
  7F4 : 04;
  7F5 : 04;
  7F6 : 04;
  7F7 : 05;
  7F8 : 05;
  7F9 : 03;
  7FA : 02;
  7FB : 04;
  7FC : 06;
  7FD : 08;
  7FE : 07;
  7FF : 05;
  800 : 03;
  801 : 03;
  802 : 04;
  803 : 05;
  804 : 05;
  805 : 04;
  806 : 04;
  807 : 03;
  808 : 02;
  809 : 02;
  80A : 02;
  80B : 03;
  80C : 03;
  80D : 03;
  80E : 04;
  80F : 04;
  810 : 04;
  811 : 04;
  812 : 04;
  813 : 04;
  814 : 04;
  815 : 04;
  816 : 05;
  817 : 05;
  818 : 05;
  819 : 05;
  81A : 05;
  81B : 05;
  81C : 05;
  81D : 04;
  81E : 05;
  81F : 05;
  820 : 06;
  821 : 05;
  822 : 04;
  823 : 04;
  824 : 05;
  825 : 05;
  826 : 04;
  827 : 04;
  828 : 04;
  829 : 04;
  82A : 03;
  82B : 03;
  82C : 03;
  82D : 04;
  82E : 04;
  82F : 05;
  830 : 05;
  831 : 05;
  832 : 05;
  833 : 05;
  834 : 05;
  835 : 05;
  836 : 05;
  837 : 05;
  838 : 07;
  839 : 06;
  83A : 06;
  83B : 05;
  83C : 05;
  83D : 04;
  83E : 03;
  83F : 03;
  840 : 04;
  841 : 04;
  842 : 04;
  843 : 04;
  844 : 04;
  845 : 04;
  846 : 05;
  847 : 05;
  848 : 04;
  849 : 03;
  84A : 03;
  84B : 04;
  84C : 05;
  84D : 05;
  84E : 05;
  84F : 05;
  850 : 05;
  851 : 05;
  852 : 05;
  853 : 05;
  854 : 04;
  855 : 04;
  856 : 04;
  857 : 04;
  858 : 03;
  859 : 03;
  85A : 04;
  85B : 04;
  85C : 04;
  85D : 04;
  85E : 04;
  85F : 03;
  860 : 05;
  861 : 05;
  862 : 05;
  863 : 05;
  864 : 05;
  865 : 05;
  866 : 05;
  867 : 05;
  868 : 04;
  869 : 04;
  86A : 04;
  86B : 04;
  86C : 04;
  86D : 04;
  86E : 04;
  86F : 04;
  870 : 06;
  871 : 06;
  872 : 05;
  873 : 05;
  874 : 05;
  875 : 05;
  876 : 05;
  877 : 05;
  878 : 03;
  879 : 04;
  87A : 05;
  87B : 06;
  87C : 06;
  87D : 05;
  87E : 05;
  87F : 04;
  880 : 04;
  881 : 05;
  882 : 06;
  883 : 07;
  884 : 07;
  885 : 05;
  886 : 02;
  887 : 01;
  888 : 03;
  889 : 05;
  88A : 05;
  88B : 04;
  88C : 03;
  88D : 04;
  88E : 04;
  88F : 04;
  890 : 05;
  891 : 05;
  892 : 05;
  893 : 05;
  894 : 05;
  895 : 04;
  896 : 04;
  897 : 04;
  898 : 03;
  899 : 03;
  89A : 04;
  89B : 05;
  89C : 05;
  89D : 05;
  89E : 05;
  89F : 05;
  8A0 : 05;
  8A1 : 04;
  8A2 : 03;
  8A3 : 04;
  8A4 : 04;
  8A5 : 03;
  8A6 : 04;
  8A7 : 05;
  8A8 : 07;
  8A9 : 06;
  8AA : 05;
  8AB : 05;
  8AC : 05;
  8AD : 05;
  8AE : 05;
  8AF : 05;
  8B0 : 05;
  8B1 : 05;
  8B2 : 05;
  8B3 : 05;
  8B4 : 05;
  8B5 : 05;
  8B6 : 04;
  8B7 : 04;
  8B8 : 04;
  8B9 : 04;
  8BA : 04;
  8BB : 05;
  8BC : 04;
  8BD : 03;
  8BE : 03;
  8BF : 04;
  8C0 : 04;
  8C1 : 05;
  8C2 : 05;
  8C3 : 05;
  8C4 : 05;
  8C5 : 05;
  8C6 : 05;
  8C7 : 04;
  8C8 : 03;
  8C9 : 03;
  8CA : 04;
  8CB : 04;
  8CC : 04;
  8CD : 04;
  8CE : 04;
  8CF : 04;
  8D0 : 04;
  8D1 : 04;
  8D2 : 04;
  8D3 : 04;
  8D4 : 04;
  8D5 : 04;
  8D6 : 04;
  8D7 : 04;
  8D8 : 05;
  8D9 : 05;
  8DA : 07;
  8DB : 06;
  8DC : 03;
  8DD : 04;
  8DE : 06;
  8DF : 04;
  8E0 : 05;
  8E1 : 05;
  8E2 : 05;
  8E3 : 05;
  8E4 : 05;
  8E5 : 04;
  8E6 : 04;
  8E7 : 04;
  8E8 : 04;
  8E9 : 04;
  8EA : 04;
  8EB : 04;
  8EC : 04;
  8ED : 04;
  8EE : 04;
  8EF : 04;
  8F0 : 04;
  8F1 : 04;
  8F2 : 04;
  8F3 : 04;
  8F4 : 04;
  8F5 : 04;
  8F6 : 05;
  8F7 : 05;
  8F8 : 03;
  8F9 : 04;
  8FA : 04;
  8FB : 03;
  8FC : 03;
  8FD : 02;
  8FE : 03;
  8FF : 03;
  900 : 03;
  901 : 03;
  902 : 04;
  903 : 04;
  904 : 05;
  905 : 05;
  906 : 06;
  907 : 06;
  908 : 06;
  909 : 06;
  90A : 06;
  90B : 05;
  90C : 05;
  90D : 05;
  90E : 05;
  90F : 06;
  910 : 04;
  911 : 04;
  912 : 03;
  913 : 03;
  914 : 03;
  915 : 03;
  916 : 03;
  917 : 03;
  918 : 04;
  919 : 04;
  91A : 04;
  91B : 04;
  91C : 04;
  91D : 04;
  91E : 04;
  91F : 04;
  920 : 04;
  921 : 04;
  922 : 04;
  923 : 04;
  924 : 04;
  925 : 04;
  926 : 04;
  927 : 05;
  928 : 06;
  929 : 06;
  92A : 06;
  92B : 06;
  92C : 05;
  92D : 04;
  92E : 04;
  92F : 04;
  930 : 04;
  931 : 04;
  932 : 04;
  933 : 05;
  934 : 04;
  935 : 04;
  936 : 03;
  937 : 02;
  938 : 03;
  939 : 03;
  93A : 04;
  93B : 04;
  93C : 04;
  93D : 04;
  93E : 04;
  93F : 03;
  940 : 02;
  941 : 02;
  942 : 03;
  943 : 04;
  944 : 05;
  945 : 07;
  946 : 08;
  947 : 09;
  948 : 07;
  949 : 07;
  94A : 07;
  94B : 07;
  94C : 06;
  94D : 05;
  94E : 04;
  94F : 04;
  950 : 05;
  951 : 06;
  952 : 05;
  953 : 03;
  954 : 03;
  955 : 03;
  956 : 04;
  957 : 04;
  958 : 02;
  959 : 02;
  95A : 03;
  95B : 05;
  95C : 05;
  95D : 03;
  95E : 03;
  95F : 04;
  960 : 05;
  961 : 05;
  962 : 05;
  963 : 05;
  964 : 05;
  965 : 05;
  966 : 05;
  967 : 05;
  968 : 04;
  969 : 04;
  96A : 04;
  96B : 04;
  96C : 04;
  96D : 04;
  96E : 04;
  96F : 04;
  970 : 04;
  971 : 05;
  972 : 05;
  973 : 04;
  974 : 03;
  975 : 02;
  976 : 03;
  977 : 04;
  978 : 05;
  979 : 05;
  97A : 04;
  97B : 03;
  97C : 03;
  97D : 03;
  97E : 04;
  97F : 04;
  980 : 04;
  981 : 03;
  982 : 03;
  983 : 03;
  984 : 04;
  985 : 04;
  986 : 05;
  987 : 05;
  988 : 05;
  989 : 04;
  98A : 03;
  98B : 04;
  98C : 06;
  98D : 06;
  98E : 05;
  98F : 04;
  990 : 03;
  991 : 03;
  992 : 04;
  993 : 05;
  994 : 05;
  995 : 04;
  996 : 04;
  997 : 03;
  998 : 04;
  999 : 04;
  99A : 04;
  99B : 04;
  99C : 04;
  99D : 04;
  99E : 04;
  99F : 04;
  9A0 : 04;
  9A1 : 04;
  9A2 : 04;
  9A3 : 04;
  9A4 : 04;
  9A5 : 04;
  9A6 : 05;
  9A7 : 05;
  9A8 : 06;
  9A9 : 06;
  9AA : 06;
  9AB : 05;
  9AC : 04;
  9AD : 04;
  9AE : 05;
  9AF : 06;
  9B0 : 06;
  9B1 : 05;
  9B2 : 04;
  9B3 : 04;
  9B4 : 05;
  9B5 : 05;
  9B6 : 05;
  9B7 : 04;
  9B8 : 04;
  9B9 : 04;
  9BA : 03;
  9BB : 03;
  9BC : 03;
  9BD : 04;
  9BE : 04;
  9BF : 05;
  9C0 : 05;
  9C1 : 05;
  9C2 : 05;
  9C3 : 05;
  9C4 : 05;
  9C5 : 05;
  9C6 : 05;
  9C7 : 05;
  9C8 : 05;
  9C9 : 05;
  9CA : 05;
  9CB : 04;
  9CC : 04;
  9CD : 04;
  9CE : 03;
  9CF : 03;
  9D0 : 04;
  9D1 : 04;
  9D2 : 04;
  9D3 : 04;
  9D4 : 04;
  9D5 : 04;
  9D6 : 05;
  9D7 : 05;
  9D8 : 04;
  9D9 : 03;
  9DA : 03;
  9DB : 04;
  9DC : 05;
  9DD : 05;
  9DE : 05;
  9DF : 05;
  9E0 : 05;
  9E1 : 05;
  9E2 : 05;
  9E3 : 05;
  9E4 : 04;
  9E5 : 04;
  9E6 : 04;
  9E7 : 04;
  9E8 : 03;
  9E9 : 04;
  9EA : 04;
  9EB : 04;
  9EC : 05;
  9ED : 05;
  9EE : 05;
  9EF : 04;
  9F0 : 04;
  9F1 : 05;
  9F2 : 05;
  9F3 : 05;
  9F4 : 06;
  9F5 : 06;
  9F6 : 05;
  9F7 : 05;
  9F8 : 03;
  9F9 : 03;
  9FA : 02;
  9FB : 02;
  9FC : 02;
  9FD : 02;
  9FE : 02;
  9FF : 02;
  A00 : 05;
  A01 : 05;
  A02 : 05;
  A03 : 05;
  A04 : 05;
  A05 : 05;
  A06 : 05;
  A07 : 05;
  A08 : 04;
  A09 : 04;
  A0A : 05;
  A0B : 06;
  A0C : 06;
  A0D : 06;
  A0E : 06;
  A0F : 06;
  A10 : 06;
  A11 : 06;
  A12 : 06;
  A13 : 06;
  A14 : 05;
  A15 : 04;
  A16 : 03;
  A17 : 02;
  A18 : 03;
  A19 : 05;
  A1A : 06;
  A1B : 05;
  A1C : 04;
  A1D : 05;
  A1E : 05;
  A1F : 04;
  A20 : 05;
  A21 : 05;
  A22 : 05;
  A23 : 04;
  A24 : 04;
  A25 : 04;
  A26 : 04;
  A27 : 03;
  A28 : 03;
  A29 : 03;
  A2A : 04;
  A2B : 05;
  A2C : 06;
  A2D : 06;
  A2E : 06;
  A2F : 06;
  A30 : 05;
  A31 : 04;
  A32 : 04;
  A33 : 05;
  A34 : 05;
  A35 : 04;
  A36 : 04;
  A37 : 05;
  A38 : 07;
  A39 : 06;
  A3A : 05;
  A3B : 05;
  A3C : 05;
  A3D : 05;
  A3E : 05;
  A3F : 05;
  A40 : 04;
  A41 : 04;
  A42 : 05;
  A43 : 05;
  A44 : 05;
  A45 : 04;
  A46 : 04;
  A47 : 04;
  A48 : 04;
  A49 : 04;
  A4A : 04;
  A4B : 05;
  A4C : 04;
  A4D : 03;
  A4E : 03;
  A4F : 04;
  A50 : 04;
  A51 : 04;
  A52 : 05;
  A53 : 05;
  A54 : 05;
  A55 : 05;
  A56 : 04;
  A57 : 04;
  A58 : 03;
  A59 : 03;
  A5A : 03;
  A5B : 03;
  A5C : 03;
  A5D : 03;
  A5E : 03;
  A5F : 04;
  A60 : 04;
  A61 : 04;
  A62 : 04;
  A63 : 04;
  A64 : 04;
  A65 : 04;
  A66 : 04;
  A67 : 04;
  A68 : 06;
  A69 : 06;
  A6A : 07;
  A6B : 05;
  A6C : 02;
  A6D : 03;
  A6E : 05;
  A6F : 03;
  A70 : 04;
  A71 : 04;
  A72 : 05;
  A73 : 05;
  A74 : 05;
  A75 : 04;
  A76 : 04;
  A77 : 04;
  A78 : 04;
  A79 : 04;
  A7A : 04;
  A7B : 04;
  A7C : 04;
  A7D : 04;
  A7E : 03;
  A7F : 03;
  A80 : 03;
  A81 : 04;
  A82 : 05;
  A83 : 05;
  A84 : 06;
  A85 : 06;
  A86 : 05;
  A87 : 05;
  A88 : 04;
  A89 : 03;
  A8A : 03;
  A8B : 03;
  A8C : 03;
  A8D : 03;
  A8E : 03;
  A8F : 03;
  A90 : 03;
  A91 : 03;
  A92 : 04;
  A93 : 04;
  A94 : 05;
  A95 : 05;
  A96 : 06;
  A97 : 06;
  A98 : 06;
  A99 : 06;
  A9A : 06;
  A9B : 05;
  A9C : 05;
  A9D : 05;
  A9E : 05;
  A9F : 06;
  AA0 : 04;
  AA1 : 04;
  AA2 : 03;
  AA3 : 03;
  AA4 : 03;
  AA5 : 03;
  AA6 : 03;
  AA7 : 03;
  AA8 : 04;
  AA9 : 04;
  AAA : 04;
  AAB : 04;
  AAC : 04;
  AAD : 04;
  AAE : 04;
  AAF : 04;
  AB0 : 03;
  AB1 : 04;
  AB2 : 04;
  AB3 : 04;
  AB4 : 04;
  AB5 : 04;
  AB6 : 05;
  AB7 : 05;
  AB8 : 07;
  AB9 : 07;
  ABA : 07;
  ABB : 07;
  ABC : 06;
  ABD : 05;
  ABE : 05;
  ABF : 06;
  AC0 : 04;
  AC1 : 05;
  AC2 : 05;
  AC3 : 06;
  AC4 : 06;
  AC5 : 05;
  AC6 : 04;
  AC7 : 03;
  AC8 : 03;
  AC9 : 04;
  ACA : 04;
  ACB : 05;
  ACC : 05;
  ACD : 05;
  ACE : 04;
  ACF : 04;
  AD0 : 04;
  AD1 : 05;
  AD2 : 06;
  AD3 : 07;
  AD4 : 08;
  AD5 : 09;
  AD6 : 09;
  AD7 : 09;
  AD8 : 06;
  AD9 : 06;
  ADA : 07;
  ADB : 07;
  ADC : 05;
  ADD : 04;
  ADE : 03;
  ADF : 03;
  AE0 : 05;
  AE1 : 06;
  AE2 : 06;
  AE3 : 03;
  AE4 : 02;
  AE5 : 03;
  AE6 : 04;
  AE7 : 04;
  AE8 : 03;
  AE9 : 03;
  AEA : 04;
  AEB : 06;
  AEC : 06;
  AED : 04;
  AEE : 04;
  AEF : 05;
  AF0 : 06;
  AF1 : 06;
  AF2 : 06;
  AF3 : 06;
  AF4 : 06;
  AF5 : 06;
  AF6 : 06;
  AF7 : 06;
  AF8 : 06;
  AF9 : 06;
  AFA : 06;
  AFB : 06;
  AFC : 06;
  AFD : 06;
  AFE : 06;
  AFF : 06;
  B00 : 03;
  B01 : 04;
  B02 : 05;
  B03 : 04;
  B04 : 03;
  B05 : 02;
  B06 : 04;
  B07 : 05;
  B08 : 05;
  B09 : 04;
  B0A : 04;
  B0B : 03;
  B0C : 03;
  B0D : 03;
  B0E : 04;
  B0F : 05;
  B10 : 04;
  B11 : 03;
  B12 : 03;
  B13 : 03;
  B14 : 04;
  B15 : 04;
  B16 : 05;
  B17 : 05;
  B18 : 05;
  B19 : 04;
  B1A : 04;
  B1B : 04;
  B1C : 05;
  B1D : 05;
  B1E : 04;
  B1F : 03;
  B20 : 03;
  B21 : 03;
  B22 : 04;
  B23 : 05;
  B24 : 05;
  B25 : 04;
  B26 : 04;
  B27 : 04;
  B28 : 06;
  B29 : 06;
  B2A : 05;
  B2B : 05;
  B2C : 05;
  B2D : 04;
  B2E : 04;
  B2F : 03;
  B30 : 03;
  B31 : 03;
  B32 : 03;
  B33 : 03;
  B34 : 03;
  B35 : 03;
  B36 : 04;
  B37 : 04;
  B38 : 06;
  B39 : 06;
  B3A : 06;
  B3B : 05;
  B3C : 04;
  B3D : 04;
  B3E : 05;
  B3F : 06;
  B40 : 06;
  B41 : 05;
  B42 : 04;
  B43 : 04;
  B44 : 05;
  B45 : 05;
  B46 : 05;
  B47 : 05;
  B48 : 04;
  B49 : 04;
  B4A : 03;
  B4B : 03;
  B4C : 03;
  B4D : 04;
  B4E : 04;
  B4F : 05;
  B50 : 04;
  B51 : 04;
  B52 : 04;
  B53 : 04;
  B54 : 04;
  B55 : 04;
  B56 : 04;
  B57 : 04;
  B58 : 04;
  B59 : 04;
  B5A : 04;
  B5B : 04;
  B5C : 04;
  B5D : 04;
  B5E : 04;
  B5F : 04;
  B60 : 04;
  B61 : 04;
  B62 : 04;
  B63 : 04;
  B64 : 04;
  B65 : 04;
  B66 : 05;
  B67 : 05;
  B68 : 04;
  B69 : 03;
  B6A : 03;
  B6B : 04;
  B6C : 05;
  B6D : 05;
  B6E : 05;
  B6F : 05;
  B70 : 05;
  B71 : 05;
  B72 : 05;
  B73 : 05;
  B74 : 04;
  B75 : 04;
  B76 : 04;
  B77 : 04;
  B78 : 04;
  B79 : 05;
  B7A : 05;
  B7B : 06;
  B7C : 06;
  B7D : 06;
  B7E : 06;
  B7F : 06;
  B80 : 04;
  B81 : 04;
  B82 : 05;
  B83 : 05;
  B84 : 06;
  B85 : 05;
  B86 : 05;
  B87 : 05;
  B88 : 05;
  B89 : 05;
  B8A : 04;
  B8B : 04;
  B8C : 04;
  B8D : 04;
  B8E : 04;
  B8F : 04;
  B90 : 05;
  B91 : 05;
  B92 : 05;
  B93 : 05;
  B94 : 05;
  B95 : 04;
  B96 : 04;
  B97 : 04;
  B98 : 05;
  B99 : 05;
  B9A : 05;
  B9B : 06;
  B9C : 06;
  B9D : 07;
  B9E : 07;
  B9F : 07;
  BA0 : 07;
  BA1 : 06;
  BA2 : 05;
  BA3 : 04;
  BA4 : 04;
  BA5 : 03;
  BA6 : 03;
  BA7 : 03;
  BA8 : 04;
  BA9 : 05;
  BAA : 06;
  BAB : 06;
  BAC : 05;
  BAD : 06;
  BAE : 05;
  BAF : 04;
  BB0 : 04;
  BB1 : 04;
  BB2 : 04;
  BB3 : 04;
  BB4 : 04;
  BB5 : 03;
  BB6 : 03;
  BB7 : 03;
  BB8 : 03;
  BB9 : 04;
  BBA : 05;
  BBB : 06;
  BBC : 07;
  BBD : 07;
  BBE : 07;
  BBF : 06;
  BC0 : 06;
  BC1 : 05;
  BC2 : 05;
  BC3 : 05;
  BC4 : 05;
  BC5 : 05;
  BC6 : 05;
  BC7 : 06;
  BC8 : 07;
  BC9 : 06;
  BCA : 05;
  BCB : 05;
  BCC : 05;
  BCD : 05;
  BCE : 05;
  BCF : 05;
  BD0 : 04;
  BD1 : 04;
  BD2 : 04;
  BD3 : 04;
  BD4 : 04;
  BD5 : 04;
  BD6 : 03;
  BD7 : 03;
  BD8 : 04;
  BD9 : 04;
  BDA : 04;
  BDB : 05;
  BDC : 04;
  BDD : 03;
  BDE : 03;
  BDF : 04;
  BE0 : 04;
  BE1 : 04;
  BE2 : 05;
  BE3 : 05;
  BE4 : 05;
  BE5 : 05;
  BE6 : 04;
  BE7 : 04;
  BE8 : 02;
  BE9 : 03;
  BEA : 03;
  BEB : 03;
  BEC : 03;
  BED : 03;
  BEE : 03;
  BEF : 03;
  BF0 : 04;
  BF1 : 04;
  BF2 : 04;
  BF3 : 04;
  BF4 : 04;
  BF5 : 04;
  BF6 : 04;
  BF7 : 04;
  BF8 : 05;
  BF9 : 05;
  BFA : 07;
  BFB : 05;
  BFC : 02;
  BFD : 03;
  BFE : 05;
  BFF : 03;
  C00 : 04;
  C01 : 04;
  C02 : 04;
  C03 : 05;
  C04 : 05;
  C05 : 04;
  C06 : 04;
  C07 : 04;
  C08 : 05;
  C09 : 05;
  C0A : 04;
  C0B : 04;
  C0C : 04;
  C0D : 03;
  C0E : 03;
  C0F : 03;
  C10 : 03;
  C11 : 04;
  C12 : 05;
  C13 : 06;
  C14 : 07;
  C15 : 06;
  C16 : 06;
  C17 : 05;
  C18 : 04;
  C19 : 03;
  C1A : 03;
  C1B : 03;
  C1C : 04;
  C1D : 04;
  C1E : 04;
  C1F : 03;
  C20 : 03;
  C21 : 03;
  C22 : 03;
  C23 : 04;
  C24 : 05;
  C25 : 05;
  C26 : 06;
  C27 : 06;
  C28 : 06;
  C29 : 06;
  C2A : 05;
  C2B : 05;
  C2C : 05;
  C2D : 05;
  C2E : 05;
  C2F : 05;
  C30 : 04;
  C31 : 04;
  C32 : 04;
  C33 : 04;
  C34 : 03;
  C35 : 04;
  C36 : 04;
  C37 : 04;
  C38 : 04;
  C39 : 04;
  C3A : 04;
  C3B : 04;
  C3C : 04;
  C3D : 04;
  C3E : 04;
  C3F : 04;
  C40 : 03;
  C41 : 04;
  C42 : 04;
  C43 : 04;
  C44 : 03;
  C45 : 03;
  C46 : 04;
  C47 : 06;
  C48 : 05;
  C49 : 05;
  C4A : 06;
  C4B : 05;
  C4C : 04;
  C4D : 03;
  C4E : 04;
  C4F : 04;
  C50 : 04;
  C51 : 05;
  C52 : 06;
  C53 : 07;
  C54 : 07;
  C55 : 07;
  C56 : 06;
  C57 : 06;
  C58 : 04;
  C59 : 04;
  C5A : 05;
  C5B : 06;
  C5C : 06;
  C5D : 05;
  C5E : 05;
  C5F : 04;
  C60 : 05;
  C61 : 05;
  C62 : 06;
  C63 : 06;
  C64 : 06;
  C65 : 06;
  C66 : 05;
  C67 : 05;
  C68 : 04;
  C69 : 05;
  C6A : 06;
  C6B : 05;
  C6C : 04;
  C6D : 02;
  C6E : 02;
  C6F : 02;
  C70 : 04;
  C71 : 06;
  C72 : 06;
  C73 : 03;
  C74 : 02;
  C75 : 03;
  C76 : 04;
  C77 : 04;
  C78 : 05;
  C79 : 05;
  C7A : 06;
  C7B : 07;
  C7C : 06;
  C7D : 04;
  C7E : 03;
  C7F : 05;
  C80 : 06;
  C81 : 06;
  C82 : 06;
  C83 : 06;
  C84 : 06;
  C85 : 05;
  C86 : 05;
  C87 : 05;
  C88 : 05;
  C89 : 05;
  C8A : 05;
  C8B : 05;
  C8C : 05;
  C8D : 05;
  C8E : 04;
  C8F : 04;
  C90 : 04;
  C91 : 03;
  C92 : 04;
  C93 : 04;
  C94 : 04;
  C95 : 02;
  C96 : 03;
  C97 : 04;
  C98 : 05;
  C99 : 04;
  C9A : 03;
  C9B : 03;
  C9C : 03;
  C9D : 04;
  C9E : 04;
  C9F : 04;
  CA0 : 05;
  CA1 : 04;
  CA2 : 03;
  CA3 : 03;
  CA4 : 03;
  CA5 : 04;
  CA6 : 05;
  CA7 : 05;
  CA8 : 06;
  CA9 : 05;
  CAA : 05;
  CAB : 05;
  CAC : 05;
  CAD : 05;
  CAE : 04;
  CAF : 03;
  CB0 : 03;
  CB1 : 04;
  CB2 : 04;
  CB3 : 04;
  CB4 : 04;
  CB5 : 04;
  CB6 : 04;
  CB7 : 04;
  CB8 : 06;
  CB9 : 05;
  CBA : 05;
  CBB : 04;
  CBC : 05;
  CBD : 05;
  CBE : 04;
  CBF : 03;
  CC0 : 03;
  CC1 : 02;
  CC2 : 02;
  CC3 : 02;
  CC4 : 03;
  CC5 : 04;
  CC6 : 05;
  CC7 : 06;
  CC8 : 08;
  CC9 : 07;
  CCA : 05;
  CCB : 05;
  CCC : 05;
  CCD : 06;
  CCE : 06;
  CCF : 06;
  CD0 : 05;
  CD1 : 05;
  CD2 : 05;
  CD3 : 05;
  CD4 : 05;
  CD5 : 05;
  CD6 : 05;
  CD7 : 05;
  CD8 : 05;
  CD9 : 05;
  CDA : 04;
  CDB : 04;
  CDC : 04;
  CDD : 04;
  CDE : 04;
  CDF : 04;
  CE0 : 04;
  CE1 : 04;
  CE2 : 04;
  CE3 : 04;
  CE4 : 04;
  CE5 : 04;
  CE6 : 04;
  CE7 : 04;
  CE8 : 04;
  CE9 : 04;
  CEA : 04;
  CEB : 04;
  CEC : 04;
  CED : 04;
  CEE : 04;
  CEF : 05;
  CF0 : 04;
  CF1 : 04;
  CF2 : 04;
  CF3 : 04;
  CF4 : 04;
  CF5 : 04;
  CF6 : 04;
  CF7 : 04;
  CF8 : 04;
  CF9 : 02;
  CFA : 03;
  CFB : 04;
  CFC : 06;
  CFD : 05;
  CFE : 05;
  CFF : 05;
  D00 : 05;
  D01 : 05;
  D02 : 06;
  D03 : 06;
  D04 : 05;
  D05 : 05;
  D06 : 04;
  D07 : 04;
  D08 : 04;
  D09 : 03;
  D0A : 04;
  D0B : 06;
  D0C : 07;
  D0D : 05;
  D0E : 05;
  D0F : 06;
  D10 : 06;
  D11 : 05;
  D12 : 04;
  D13 : 04;
  D14 : 05;
  D15 : 05;
  D16 : 05;
  D17 : 05;
  D18 : 07;
  D19 : 07;
  D1A : 08;
  D1B : 08;
  D1C : 09;
  D1D : 09;
  D1E : 09;
  D1F : 09;
  D20 : 04;
  D21 : 04;
  D22 : 04;
  D23 : 04;
  D24 : 04;
  D25 : 04;
  D26 : 04;
  D27 : 04;
  D28 : 04;
  D29 : 04;
  D2A : 04;
  D2B : 04;
  D2C : 05;
  D2D : 06;
  D2E : 07;
  D2F : 08;
  D30 : 06;
  D31 : 06;
  D32 : 05;
  D33 : 04;
  D34 : 03;
  D35 : 03;
  D36 : 03;
  D37 : 04;
  D38 : 04;
  D39 : 04;
  D3A : 05;
  D3B : 06;
  D3C : 06;
  D3D : 06;
  D3E : 05;
  D3F : 03;
  D40 : 04;
  D41 : 04;
  D42 : 04;
  D43 : 04;
  D44 : 03;
  D45 : 02;
  D46 : 02;
  D47 : 03;
  D48 : 02;
  D49 : 04;
  D4A : 06;
  D4B : 07;
  D4C : 06;
  D4D : 06;
  D4E : 06;
  D4F : 06;
  D50 : 05;
  D51 : 05;
  D52 : 04;
  D53 : 04;
  D54 : 04;
  D55 : 04;
  D56 : 05;
  D57 : 05;
  D58 : 04;
  D59 : 04;
  D5A : 05;
  D5B : 05;
  D5C : 06;
  D5D : 05;
  D5E : 04;
  D5F : 04;
  D60 : 04;
  D61 : 04;
  D62 : 03;
  D63 : 04;
  D64 : 05;
  D65 : 05;
  D66 : 04;
  D67 : 03;
  D68 : 04;
  D69 : 04;
  D6A : 04;
  D6B : 05;
  D6C : 04;
  D6D : 03;
  D6E : 03;
  D6F : 04;
  D70 : 04;
  D71 : 04;
  D72 : 05;
  D73 : 05;
  D74 : 04;
  D75 : 04;
  D76 : 04;
  D77 : 04;
  D78 : 04;
  D79 : 04;
  D7A : 04;
  D7B : 04;
  D7C : 04;
  D7D : 04;
  D7E : 04;
  D7F : 04;
  D80 : 05;
  D81 : 04;
  D82 : 04;
  D83 : 04;
  D84 : 03;
  D85 : 03;
  D86 : 04;
  D87 : 04;
  D88 : 06;
  D89 : 06;
  D8A : 05;
  D8B : 04;
  D8C : 03;
  D8D : 03;
  D8E : 04;
  D8F : 06;
  D90 : 05;
  D91 : 05;
  D92 : 05;
  D93 : 05;
  D94 : 05;
  D95 : 05;
  D96 : 05;
  D97 : 05;
  D98 : 05;
  D99 : 05;
  D9A : 06;
  D9B : 06;
  D9C : 05;
  D9D : 04;
  D9E : 03;
  D9F : 03;
  DA0 : 04;
  DA1 : 04;
  DA2 : 05;
  DA3 : 05;
  DA4 : 06;
  DA5 : 06;
  DA6 : 06;
  DA7 : 06;
  DA8 : 05;
  DA9 : 05;
  DAA : 05;
  DAB : 04;
  DAC : 04;
  DAD : 03;
  DAE : 03;
  DAF : 02;
  DB0 : 03;
  DB1 : 04;
  DB2 : 05;
  DB3 : 05;
  DB4 : 05;
  DB5 : 05;
  DB6 : 05;
  DB7 : 06;
  DB8 : 05;
  DB9 : 05;
  DBA : 06;
  DBB : 06;
  DBC : 05;
  DBD : 05;
  DBE : 05;
  DBF : 05;
  DC0 : 03;
  DC1 : 03;
  DC2 : 04;
  DC3 : 04;
  DC4 : 03;
  DC5 : 04;
  DC6 : 04;
  DC7 : 04;
  DC8 : 04;
  DC9 : 04;
  DCA : 04;
  DCB : 04;
  DCC : 04;
  DCD : 04;
  DCE : 04;
  DCF : 04;
  DD0 : 04;
  DD1 : 04;
  DD2 : 04;
  DD3 : 04;
  DD4 : 04;
  DD5 : 04;
  DD6 : 05;
  DD7 : 05;
  DD8 : 04;
  DD9 : 06;
  DDA : 07;
  DDB : 06;
  DDC : 04;
  DDD : 03;
  DDE : 04;
  DDF : 05;
  DE0 : 03;
  DE1 : 04;
  DE2 : 06;
  DE3 : 08;
  DE4 : 09;
  DE5 : 08;
  DE6 : 06;
  DE7 : 04;
  DE8 : 04;
  DE9 : 04;
  DEA : 05;
  DEB : 06;
  DEC : 06;
  DED : 06;
  DEE : 05;
  DEF : 04;
  DF0 : 04;
  DF1 : 04;
  DF2 : 04;
  DF3 : 04;
  DF4 : 05;
  DF5 : 05;
  DF6 : 05;
  DF7 : 05;
  DF8 : 05;
  DF9 : 05;
  DFA : 05;
  DFB : 05;
  DFC : 04;
  DFD : 03;
  DFE : 02;
  DFF : 02;
  E00 : 03;
  E01 : 06;
  E02 : 07;
  E03 : 05;
  E04 : 02;
  E05 : 02;
  E06 : 04;
  E07 : 05;
  E08 : 04;
  E09 : 05;
  E0A : 06;
  E0B : 06;
  E0C : 05;
  E0D : 04;
  E0E : 03;
  E0F : 03;
  E10 : 06;
  E11 : 06;
  E12 : 06;
  E13 : 05;
  E14 : 05;
  E15 : 05;
  E16 : 05;
  E17 : 05;
  E18 : 04;
  E19 : 04;
  E1A : 04;
  E1B : 04;
  E1C : 04;
  E1D : 03;
  E1E : 03;
  E1F : 03;
  E20 : 04;
  E21 : 03;
  E22 : 04;
  E23 : 04;
  E24 : 04;
  E25 : 02;
  E26 : 03;
  E27 : 04;
  E28 : 05;
  E29 : 04;
  E2A : 03;
  E2B : 03;
  E2C : 04;
  E2D : 04;
  E2E : 04;
  E2F : 04;
  E30 : 05;
  E31 : 04;
  E32 : 03;
  E33 : 03;
  E34 : 03;
  E35 : 04;
  E36 : 05;
  E37 : 05;
  E38 : 05;
  E39 : 05;
  E3A : 05;
  E3B : 05;
  E3C : 05;
  E3D : 05;
  E3E : 04;
  E3F : 03;
  E40 : 03;
  E41 : 04;
  E42 : 05;
  E43 : 05;
  E44 : 04;
  E45 : 04;
  E46 : 04;
  E47 : 05;
  E48 : 06;
  E49 : 05;
  E4A : 05;
  E4B : 05;
  E4C : 05;
  E4D : 05;
  E4E : 04;
  E4F : 04;
  E50 : 04;
  E51 : 03;
  E52 : 03;
  E53 : 03;
  E54 : 03;
  E55 : 04;
  E56 : 05;
  E57 : 06;
  E58 : 07;
  E59 : 06;
  E5A : 04;
  E5B : 04;
  E5C : 04;
  E5D : 05;
  E5E : 05;
  E5F : 04;
  E60 : 05;
  E61 : 05;
  E62 : 05;
  E63 : 05;
  E64 : 05;
  E65 : 05;
  E66 : 05;
  E67 : 05;
  E68 : 04;
  E69 : 04;
  E6A : 04;
  E6B : 03;
  E6C : 03;
  E6D : 03;
  E6E : 04;
  E6F : 04;
  E70 : 04;
  E71 : 04;
  E72 : 04;
  E73 : 04;
  E74 : 04;
  E75 : 04;
  E76 : 04;
  E77 : 04;
  E78 : 04;
  E79 : 04;
  E7A : 04;
  E7B : 04;
  E7C : 04;
  E7D : 04;
  E7E : 04;
  E7F : 04;
  E80 : 04;
  E81 : 04;
  E82 : 04;
  E83 : 04;
  E84 : 04;
  E85 : 04;
  E86 : 04;
  E87 : 05;
  E88 : 04;
  E89 : 02;
  E8A : 03;
  E8B : 04;
  E8C : 05;
  E8D : 05;
  E8E : 04;
  E8F : 05;
  E90 : 05;
  E91 : 05;
  E92 : 05;
  E93 : 05;
  E94 : 05;
  E95 : 05;
  E96 : 04;
  E97 : 04;
  E98 : 04;
  E99 : 03;
  E9A : 03;
  E9B : 05;
  E9C : 05;
  E9D : 04;
  E9E : 05;
  E9F : 06;
  EA0 : 07;
  EA1 : 06;
  EA2 : 05;
  EA3 : 05;
  EA4 : 05;
  EA5 : 05;
  EA6 : 05;
  EA7 : 05;
  EA8 : 06;
  EA9 : 06;
  EAA : 06;
  EAB : 07;
  EAC : 07;
  EAD : 07;
  EAE : 07;
  EAF : 07;
  EB0 : 03;
  EB1 : 03;
  EB2 : 03;
  EB3 : 03;
  EB4 : 03;
  EB5 : 03;
  EB6 : 03;
  EB7 : 03;
  EB8 : 04;
  EB9 : 03;
  EBA : 03;
  EBB : 04;
  EBC : 04;
  EBD : 05;
  EBE : 06;
  EBF : 07;
  EC0 : 06;
  EC1 : 06;
  EC2 : 05;
  EC3 : 04;
  EC4 : 03;
  EC5 : 03;
  EC6 : 04;
  EC7 : 04;
  EC8 : 04;
  EC9 : 04;
  ECA : 05;
  ECB : 06;
  ECC : 06;
  ECD : 06;
  ECE : 05;
  ECF : 04;
  ED0 : 04;
  ED1 : 04;
  ED2 : 05;
  ED3 : 04;
  ED4 : 03;
  ED5 : 02;
  ED6 : 03;
  ED7 : 03;
  ED8 : 04;
  ED9 : 05;
  EDA : 06;
  EDB : 07;
  EDC : 06;
  EDD : 05;
  EDE : 05;
  EDF : 05;
  EE0 : 04;
  EE1 : 04;
  EE2 : 04;
  EE3 : 04;
  EE4 : 04;
  EE5 : 04;
  EE6 : 04;
  EE7 : 04;
  EE8 : 04;
  EE9 : 04;
  EEA : 05;
  EEB : 05;
  EEC : 05;
  EED : 05;
  EEE : 04;
  EEF : 04;
  EF0 : 04;
  EF1 : 04;
  EF2 : 03;
  EF3 : 04;
  EF4 : 04;
  EF5 : 04;
  EF6 : 03;
  EF7 : 03;
  EF8 : 04;
  EF9 : 04;
  EFA : 04;
  EFB : 05;
  EFC : 04;
  EFD : 03;
  EFE : 03;
  EFF : 04;
  F00 : 04;
  F01 : 04;
  F02 : 05;
  F03 : 05;
  F04 : 05;
  F05 : 05;
  F06 : 05;
  F07 : 04;
  F08 : 04;
  F09 : 04;
  F0A : 04;
  F0B : 04;
  F0C : 04;
  F0D : 04;
  F0E : 04;
  F0F : 04;
  F10 : 05;
  F11 : 04;
  F12 : 04;
  F13 : 04;
  F14 : 03;
  F15 : 04;
  F16 : 04;
  F17 : 04;
  F18 : 05;
  F19 : 05;
  F1A : 05;
  F1B : 04;
  F1C : 04;
  F1D : 04;
  F1E : 05;
  F1F : 05;
  F20 : 05;
  F21 : 05;
  F22 : 05;
  F23 : 05;
  F24 : 05;
  F25 : 06;
  F26 : 06;
  F27 : 06;
  F28 : 06;
  F29 : 06;
  F2A : 06;
  F2B : 06;
  F2C : 05;
  F2D : 04;
  F2E : 03;
  F2F : 03;
  F30 : 03;
  F31 : 04;
  F32 : 05;
  F33 : 06;
  F34 : 06;
  F35 : 06;
  F36 : 06;
  F37 : 05;
  F38 : 05;
  F39 : 05;
  F3A : 05;
  F3B : 05;
  F3C : 04;
  F3D : 04;
  F3E : 04;
  F3F : 03;
  F40 : 03;
  F41 : 04;
  F42 : 05;
  F43 : 05;
  F44 : 05;
  F45 : 05;
  F46 : 05;
  F47 : 06;
  F48 : 05;
  F49 : 05;
  F4A : 05;
  F4B : 05;
  F4C : 05;
  F4D : 05;
  F4E : 05;
  F4F : 05;
  F50 : 04;
  F51 : 04;
  F52 : 04;
  F53 : 04;
  F54 : 04;
  F55 : 04;
  F56 : 04;
  F57 : 04;
  F58 : 04;
  F59 : 04;
  F5A : 04;
  F5B : 04;
  F5C : 04;
  F5D : 04;
  F5E : 04;
  F5F : 04;
  F60 : 04;
  F61 : 04;
  F62 : 04;
  F63 : 04;
  F64 : 04;
  F65 : 04;
  F66 : 05;
  F67 : 05;
  F68 : 05;
  F69 : 06;
  F6A : 07;
  F6B : 06;
  F6C : 04;
  F6D : 03;
  F6E : 04;
  F6F : 04;
  F70 : 03;
  F71 : 04;
  F72 : 05;
  F73 : 07;
  F74 : 08;
  F75 : 07;
  F76 : 06;
  F77 : 04;
  F78 : 03;
  F79 : 04;
  F7A : 05;
  F7B : 06;
  F7C : 07;
  F7D : 06;
  F7E : 05;
  F7F : 04;
  F80 : 03;
  F81 : 03;
  F82 : 03;
  F83 : 04;
  F84 : 04;
  F85 : 04;
  F86 : 04;
  F87 : 04;
  F88 : 05;
  F89 : 05;
  F8A : 05;
  F8B : 05;
  F8C : 04;
  F8D : 03;
  F8E : 02;
  F8F : 02;
  F90 : 04;
  F91 : 06;
  F92 : 07;
  F93 : 05;
  F94 : 02;
  F95 : 02;
  F96 : 04;
  F97 : 05;
  F98 : 04;
  F99 : 05;
  F9A : 06;
  F9B : 06;
  F9C : 05;
  F9D : 04;
  F9E : 04;
  F9F : 04;
  FA0 : 05;
  FA1 : 05;
  FA2 : 05;
  FA3 : 05;
  FA4 : 05;
  FA5 : 05;
  FA6 : 05;
  FA7 : 05;
  FA8 : 05;
  FA9 : 05;
  FAA : 05;
  FAB : 05;
  FAC : 05;
  FAD : 05;
  FAE : 04;
  FAF : 04;
  FB0 : 04;
  FB1 : 04;
  FB2 : 04;
  FB3 : 05;
  FB4 : 04;
  FB5 : 02;
  FB6 : 03;
  FB7 : 04;
  FB8 : 05;
  FB9 : 04;
  FBA : 03;
  FBB : 03;
  FBC : 04;
  FBD : 04;
  FBE : 04;
  FBF : 04;
  FC0 : 04;
  FC1 : 04;
  FC2 : 03;
  FC3 : 03;
  FC4 : 03;
  FC5 : 04;
  FC6 : 05;
  FC7 : 05;
  FC8 : 05;
  FC9 : 05;
  FCA : 04;
  FCB : 05;
  FCC : 05;
  FCD : 05;
  FCE : 04;
  FCF : 03;
  FD0 : 03;
  FD1 : 04;
  FD2 : 05;
  FD3 : 05;
  FD4 : 04;
  FD5 : 04;
  FD6 : 04;
  FD7 : 05;
  FD8 : 05;
  FD9 : 05;
  FDA : 06;
  FDB : 06;
  FDC : 05;
  FDD : 05;
  FDE : 04;
  FDF : 04;
  FE0 : 04;
  FE1 : 04;
  FE2 : 04;
  FE3 : 04;
  FE4 : 04;
  FE5 : 05;
  FE6 : 06;
  FE7 : 06;
  FE8 : 06;
  FE9 : 05;
  FEA : 04;
  FEB : 03;
  FEC : 03;
  FED : 03;
  FEE : 03;
  FEF : 03;
  FF0 : 04;
  FF1 : 04;
  FF2 : 04;
  FF3 : 04;
  FF4 : 04;
  FF5 : 04;
  FF6 : 04;
  FF7 : 04;
  FF8 : 04;
  FF9 : 04;
  FFA : 04;
  FFB : 04;
  FFC : 04;
  FFD : 04;
  FFE : 04;
  FFF : 05;
  1000 : 04;
  1001 : 04;
  1002 : 04;
  1003 : 04;
  1004 : 04;
  1005 : 04;
  1006 : 04;
  1007 : 04;
  1008 : 04;
  1009 : 04;
  100A : 04;
  100B : 04;
  100C : 04;
  100D : 04;
  100E : 04;
  100F : 04;
  1010 : 04;
  1011 : 04;
  1012 : 04;
  1013 : 04;
  1014 : 05;
  1015 : 05;
  1016 : 05;
  1017 : 05;
  1018 : 04;
  1019 : 03;
  101A : 03;
  101B : 04;
  101C : 05;
  101D : 04;
  101E : 04;
  101F : 04;
  1020 : 03;
  1021 : 04;
  1022 : 04;
  1023 : 04;
  1024 : 04;
  1025 : 04;
  1026 : 04;
  1027 : 04;
  1028 : 05;
  1029 : 04;
  102A : 03;
  102B : 03;
  102C : 04;
  102D : 04;
  102E : 05;
  102F : 06;
  1030 : 06;
  1031 : 06;
  1032 : 06;
  1033 : 06;
  1034 : 05;
  1035 : 05;
  1036 : 05;
  1037 : 05;
  1038 : 03;
  1039 : 04;
  103A : 04;
  103B : 04;
  103C : 04;
  103D : 04;
  103E : 04;
  103F : 04;
  1040 : 04;
  1041 : 04;
  1042 : 04;
  1043 : 04;
  1044 : 04;
  1045 : 04;
  1046 : 04;
  1047 : 04;
  1048 : 04;
  1049 : 03;
  104A : 03;
  104B : 03;
  104C : 04;
  104D : 04;
  104E : 05;
  104F : 06;
  1050 : 06;
  1051 : 05;
  1052 : 04;
  1053 : 04;
  1054 : 04;
  1055 : 04;
  1056 : 04;
  1057 : 04;
  1058 : 04;
  1059 : 04;
  105A : 04;
  105B : 05;
  105C : 06;
  105D : 06;
  105E : 05;
  105F : 04;
  1060 : 04;
  1061 : 05;
  1062 : 05;
  1063 : 04;
  1064 : 04;
  1065 : 03;
  1066 : 03;
  1067 : 04;
  1068 : 05;
  1069 : 06;
  106A : 06;
  106B : 06;
  106C : 05;
  106D : 04;
  106E : 04;
  106F : 04;
  1070 : 04;
  1071 : 04;
  1072 : 03;
  1073 : 03;
  1074 : 03;
  1075 : 03;
  1076 : 04;
  1077 : 04;
  1078 : 05;
  1079 : 05;
  107A : 05;
  107B : 05;
  107C : 05;
  107D : 05;
  107E : 05;
  107F : 04;
  1080 : 04;
  1081 : 04;
  1082 : 03;
  1083 : 04;
  1084 : 04;
  1085 : 04;
  1086 : 03;
  1087 : 03;
  1088 : 04;
  1089 : 04;
  108A : 04;
  108B : 05;
  108C : 04;
  108D : 03;
  108E : 03;
  108F : 04;
  1090 : 04;
  1091 : 04;
  1092 : 05;
  1093 : 06;
  1094 : 06;
  1095 : 06;
  1096 : 05;
  1097 : 05;
  1098 : 05;
  1099 : 05;
  109A : 05;
  109B : 05;
  109C : 05;
  109D : 05;
  109E : 05;
  109F : 05;
  10A0 : 04;
  10A1 : 04;
  10A2 : 04;
  10A3 : 04;
  10A4 : 04;
  10A5 : 04;
  10A6 : 04;
  10A7 : 04;
  10A8 : 04;
  10A9 : 05;
  10AA : 05;
  10AB : 05;
  10AC : 05;
  10AD : 05;
  10AE : 05;
  10AF : 06;
  10B0 : 06;
  10B1 : 06;
  10B2 : 06;
  10B3 : 06;
  10B4 : 06;
  10B5 : 06;
  10B6 : 06;
  10B7 : 06;
  10B8 : 06;
  10B9 : 06;
  10BA : 06;
  10BB : 06;
  10BC : 05;
  10BD : 04;
  10BE : 03;
  10BF : 02;
  10C0 : 03;
  10C1 : 04;
  10C2 : 05;
  10C3 : 06;
  10C4 : 06;
  10C5 : 06;
  10C6 : 05;
  10C7 : 05;
  10C8 : 04;
  10C9 : 04;
  10CA : 05;
  10CB : 05;
  10CC : 05;
  10CD : 05;
  10CE : 04;
  10CF : 04;
  10D0 : 03;
  10D1 : 04;
  10D2 : 05;
  10D3 : 05;
  10D4 : 05;
  10D5 : 05;
  10D6 : 05;
  10D7 : 06;
  10D8 : 05;
  10D9 : 05;
  10DA : 05;
  10DB : 05;
  10DC : 05;
  10DD : 05;
  10DE : 05;
  10DF : 05;
  10E0 : 05;
  10E1 : 05;
  10E2 : 05;
  10E3 : 05;
  10E4 : 05;
  10E5 : 05;
  10E6 : 04;
  10E7 : 04;
  10E8 : 04;
  10E9 : 04;
  10EA : 04;
  10EB : 04;
  10EC : 04;
  10ED : 04;
  10EE : 04;
  10EF : 04;
  10F0 : 04;
  10F1 : 04;
  10F2 : 04;
  10F3 : 04;
  10F4 : 04;
  10F5 : 04;
  10F6 : 05;
  10F7 : 05;
  10F8 : 05;
  10F9 : 06;
  10FA : 06;
  10FB : 06;
  10FC : 04;
  10FD : 03;
  10FE : 04;
  10FF : 04;
  1100 : 04;
  1101 : 04;
  1102 : 05;
  1103 : 06;
  1104 : 07;
  1105 : 06;
  1106 : 05;
  1107 : 04;
  1108 : 02;
  1109 : 04;
  110A : 05;
  110B : 07;
  110C : 07;
  110D : 06;
  110E : 05;
  110F : 04;
  1110 : 03;
  1111 : 03;
  1112 : 03;
  1113 : 03;
  1114 : 03;
  1115 : 03;
  1116 : 03;
  1117 : 03;
  1118 : 05;
  1119 : 05;
  111A : 05;
  111B : 05;
  111C : 04;
  111D : 03;
  111E : 02;
  111F : 02;
  1120 : 04;
  1121 : 06;
  1122 : 07;
  1123 : 04;
  1124 : 02;
  1125 : 03;
  1126 : 04;
  1127 : 04;
  1128 : 05;
  1129 : 05;
  112A : 06;
  112B : 06;
  112C : 05;
  112D : 04;
  112E : 04;
  112F : 04;
  1130 : 05;
  1131 : 05;
  1132 : 04;
  1133 : 04;
  1134 : 04;
  1135 : 04;
  1136 : 04;
  1137 : 05;
  1138 : 06;
  1139 : 06;
  113A : 06;
  113B : 07;
  113C : 06;
  113D : 06;
  113E : 06;
  113F : 05;
  1140 : 04;
  1141 : 04;
  1142 : 04;
  1143 : 05;
  1144 : 04;
  1145 : 02;
  1146 : 03;
  1147 : 04;
  1148 : 05;
  1149 : 04;
  114A : 03;
  114B : 03;
  114C : 03;
  114D : 04;
  114E : 04;
  114F : 03;
  1150 : 04;
  1151 : 04;
  1152 : 03;
  1153 : 03;
  1154 : 03;
  1155 : 04;
  1156 : 04;
  1157 : 05;
  1158 : 05;
  1159 : 04;
  115A : 04;
  115B : 04;
  115C : 05;
  115D : 05;
  115E : 04;
  115F : 03;
  1160 : 03;
  1161 : 04;
  1162 : 05;
  1163 : 05;
  1164 : 04;
  1165 : 04;
  1166 : 04;
  1167 : 05;
  1168 : 05;
  1169 : 05;
  116A : 06;
  116B : 06;
  116C : 05;
  116D : 05;
  116E : 05;
  116F : 05;
  1170 : 05;
  1171 : 05;
  1172 : 05;
  1173 : 05;
  1174 : 05;
  1175 : 05;
  1176 : 05;
  1177 : 05;
  1178 : 06;
  1179 : 05;
  117A : 05;
  117B : 04;
  117C : 04;
  117D : 03;
  117E : 03;
  117F : 03;
  1180 : 03;
  1181 : 03;
  1182 : 03;
  1183 : 03;
  1184 : 03;
  1185 : 03;
  1186 : 03;
  1187 : 03;
  1188 : 03;
  1189 : 03;
  118A : 03;
  118B : 03;
  118C : 04;
  118D : 04;
  118E : 04;
  118F : 04;
  1190 : 04;
  1191 : 04;
  1192 : 04;
  1193 : 04;
  1194 : 04;
  1195 : 04;
  1196 : 04;
  1197 : 04;
  1198 : 04;
  1199 : 04;
  119A : 04;
  119B : 04;
  119C : 04;
  119D : 04;
  119E : 04;
  119F : 04;
  11A0 : 04;
  11A1 : 04;
  11A2 : 04;
  11A3 : 04;
  11A4 : 04;
  11A5 : 05;
  11A6 : 05;
  11A7 : 05;
  11A8 : 04;
  11A9 : 03;
  11AA : 03;
  11AB : 04;
  11AC : 05;
  11AD : 04;
  11AE : 03;
  11AF : 03;
  11B0 : 03;
  11B1 : 03;
  11B2 : 03;
  11B3 : 04;
  11B4 : 04;
  11B5 : 04;
  11B6 : 04;
  11B7 : 05;
  11B8 : 05;
  11B9 : 04;
  11BA : 03;
  11BB : 03;
  11BC : 03;
  11BD : 04;
  11BE : 04;
  11BF : 05;
  11C0 : 05;
  11C1 : 05;
  11C2 : 06;
  11C3 : 05;
  11C4 : 05;
  11C5 : 05;
  11C6 : 05;
  11C7 : 06;
  11C8 : 04;
  11C9 : 04;
  11CA : 04;
  11CB : 04;
  11CC : 04;
  11CD : 03;
  11CE : 03;
  11CF : 03;
  11D0 : 05;
  11D1 : 05;
  11D2 : 05;
  11D3 : 05;
  11D4 : 05;
  11D5 : 05;
  11D6 : 05;
  11D7 : 05;
  11D8 : 04;
  11D9 : 04;
  11DA : 03;
  11DB : 03;
  11DC : 03;
  11DD : 04;
  11DE : 04;
  11DF : 05;
  11E0 : 05;
  11E1 : 05;
  11E2 : 04;
  11E3 : 04;
  11E4 : 04;
  11E5 : 04;
  11E6 : 04;
  11E7 : 04;
  11E8 : 04;
  11E9 : 04;
  11EA : 04;
  11EB : 05;
  11EC : 06;
  11ED : 06;
  11EE : 05;
  11EF : 04;
  11F0 : 05;
  11F1 : 05;
  11F2 : 05;
  11F3 : 05;
  11F4 : 04;
  11F5 : 04;
  11F6 : 04;
  11F7 : 04;
  11F8 : 05;
  11F9 : 05;
  11FA : 05;
  11FB : 05;
  11FC : 05;
  11FD : 04;
  11FE : 04;
  11FF : 04;
  1200 : 04;
  1201 : 04;
  1202 : 04;
  1203 : 03;
  1204 : 03;
  1205 : 04;
  1206 : 04;
  1207 : 04;
  1208 : 05;
  1209 : 05;
  120A : 05;
  120B : 05;
  120C : 04;
  120D : 04;
  120E : 04;
  120F : 04;
  1210 : 04;
  1211 : 04;
  1212 : 04;
  1213 : 04;
  1214 : 04;
  1215 : 04;
  1216 : 03;
  1217 : 03;
  1218 : 04;
  1219 : 04;
  121A : 04;
  121B : 05;
  121C : 04;
  121D : 03;
  121E : 03;
  121F : 04;
  1220 : 04;
  1221 : 05;
  1222 : 05;
  1223 : 06;
  1224 : 07;
  1225 : 07;
  1226 : 06;
  1227 : 05;
  1228 : 05;
  1229 : 05;
  122A : 05;
  122B : 04;
  122C : 04;
  122D : 04;
  122E : 04;
  122F : 04;
  1230 : 04;
  1231 : 04;
  1232 : 04;
  1233 : 04;
  1234 : 04;
  1235 : 04;
  1236 : 04;
  1237 : 04;
  1238 : 04;
  1239 : 05;
  123A : 05;
  123B : 06;
  123C : 06;
  123D : 06;
  123E : 06;
  123F : 06;
  1240 : 06;
  1241 : 06;
  1242 : 06;
  1243 : 05;
  1244 : 05;
  1245 : 05;
  1246 : 05;
  1247 : 05;
  1248 : 05;
  1249 : 06;
  124A : 05;
  124B : 05;
  124C : 05;
  124D : 04;
  124E : 03;
  124F : 03;
  1250 : 03;
  1251 : 04;
  1252 : 05;
  1253 : 06;
  1254 : 07;
  1255 : 06;
  1256 : 05;
  1257 : 05;
  1258 : 04;
  1259 : 04;
  125A : 05;
  125B : 05;
  125C : 05;
  125D : 05;
  125E : 05;
  125F : 05;
  1260 : 03;
  1261 : 04;
  1262 : 05;
  1263 : 05;
  1264 : 05;
  1265 : 05;
  1266 : 05;
  1267 : 05;
  1268 : 05;
  1269 : 05;
  126A : 04;
  126B : 04;
  126C : 05;
  126D : 05;
  126E : 05;
  126F : 05;
  1270 : 06;
  1271 : 06;
  1272 : 06;
  1273 : 06;
  1274 : 06;
  1275 : 06;
  1276 : 05;
  1277 : 04;
  1278 : 04;
  1279 : 04;
  127A : 04;
  127B : 04;
  127C : 04;
  127D : 04;
  127E : 04;
  127F : 04;
  1280 : 04;
  1281 : 04;
  1282 : 04;
  1283 : 04;
  1284 : 04;
  1285 : 04;
  1286 : 05;
  1287 : 05;
  1288 : 05;
  1289 : 06;
  128A : 06;
  128B : 05;
  128C : 04;
  128D : 03;
  128E : 04;
  128F : 04;
  1290 : 04;
  1291 : 04;
  1292 : 04;
  1293 : 05;
  1294 : 05;
  1295 : 05;
  1296 : 05;
  1297 : 04;
  1298 : 02;
  1299 : 04;
  129A : 06;
  129B : 07;
  129C : 07;
  129D : 06;
  129E : 05;
  129F : 04;
  12A0 : 03;
  12A1 : 03;
  12A2 : 03;
  12A3 : 03;
  12A4 : 03;
  12A5 : 03;
  12A6 : 03;
  12A7 : 03;
  12A8 : 05;
  12A9 : 05;
  12AA : 05;
  12AB : 05;
  12AC : 04;
  12AD : 03;
  12AE : 02;
  12AF : 02;
  12B0 : 04;
  12B1 : 06;
  12B2 : 06;
  12B3 : 04;
  12B4 : 03;
  12B5 : 03;
  12B6 : 04;
  12B7 : 04;
  12B8 : 05;
  12B9 : 05;
  12BA : 06;
  12BB : 06;
  12BC : 05;
  12BD : 04;
  12BE : 04;
  12BF : 05;
  12C0 : 04;
  12C1 : 04;
  12C2 : 04;
  12C3 : 04;
  12C4 : 04;
  12C5 : 04;
  12C6 : 04;
  12C7 : 05;
  12C8 : 05;
  12C9 : 05;
  12CA : 05;
  12CB : 05;
  12CC : 05;
  12CD : 04;
  12CE : 04;
  12CF : 04;
  12D0 : 04;
  12D1 : 04;
  12D2 : 04;
  12D3 : 05;
  12D4 : 04;
  12D5 : 03;
  12D6 : 03;
  12D7 : 05;
  12D8 : 05;
  12D9 : 04;
  12DA : 03;
  12DB : 03;
  12DC : 04;
  12DD : 04;
  12DE : 03;
  12DF : 03;
  12E0 : 04;
  12E1 : 04;
  12E2 : 03;
  12E3 : 03;
  12E4 : 03;
  12E5 : 04;
  12E6 : 04;
  12E7 : 05;
  12E8 : 05;
  12E9 : 04;
  12EA : 04;
  12EB : 04;
  12EC : 05;
  12ED : 05;
  12EE : 04;
  12EF : 03;
  12F0 : 03;
  12F1 : 03;
  12F2 : 04;
  12F3 : 04;
  12F4 : 04;
  12F5 : 04;
  12F6 : 04;
  12F7 : 04;
  12F8 : 05;
  12F9 : 05;
  12FA : 06;
  12FB : 06;
  12FC : 05;
  12FD : 05;
  12FE : 05;
  12FF : 06;
  1300 : 05;
  1301 : 05;
  1302 : 05;
  1303 : 05;
  1304 : 05;
  1305 : 05;
  1306 : 05;
  1307 : 04;
  1308 : 06;
  1309 : 06;
  130A : 06;
  130B : 05;
  130C : 04;
  130D : 04;
  130E : 03;
  130F : 03;
  1310 : 03;
  1311 : 03;
  1312 : 03;
  1313 : 03;
  1314 : 03;
  1315 : 03;
  1316 : 03;
  1317 : 03;
  1318 : 02;
  1319 : 02;
  131A : 02;
  131B : 03;
  131C : 03;
  131D : 03;
  131E : 04;
  131F : 04;
  1320 : 04;
  1321 : 04;
  1322 : 04;
  1323 : 04;
  1324 : 04;
  1325 : 04;
  1326 : 04;
  1327 : 04;
  1328 : 04;
  1329 : 04;
  132A : 04;
  132B : 04;
  132C : 04;
  132D : 04;
  132E : 04;
  132F : 04;
  1330 : 04;
  1331 : 04;
  1332 : 04;
  1333 : 04;
  1334 : 04;
  1335 : 04;
  1336 : 04;
  1337 : 04;
  1338 : 04;
  1339 : 03;
  133A : 03;
  133B : 04;
  133C : 05;
  133D : 04;
  133E : 03;
  133F : 03;
  1340 : 03;
  1341 : 03;
  1342 : 03;
  1343 : 03;
  1344 : 04;
  1345 : 04;
  1346 : 04;
  1347 : 04;
  1348 : 04;
  1349 : 04;
  134A : 04;
  134B : 04;
  134C : 04;
  134D : 04;
  134E : 04;
  134F : 04;
  1350 : 03;
  1351 : 04;
  1352 : 05;
  1353 : 05;
  1354 : 05;
  1355 : 05;
  1356 : 05;
  1357 : 06;
  1358 : 06;
  1359 : 06;
  135A : 06;
  135B : 05;
  135C : 05;
  135D : 05;
  135E : 05;
  135F : 05;
  1360 : 04;
  1361 : 04;
  1362 : 04;
  1363 : 04;
  1364 : 04;
  1365 : 04;
  1366 : 04;
  1367 : 04;
  1368 : 04;
  1369 : 04;
  136A : 04;
  136B : 04;
  136C : 04;
  136D : 04;
  136E : 04;
  136F : 04;
  1370 : 04;
  1371 : 04;
  1372 : 04;
  1373 : 04;
  1374 : 04;
  1375 : 04;
  1376 : 05;
  1377 : 05;
  1378 : 04;
  1379 : 04;
  137A : 04;
  137B : 05;
  137C : 06;
  137D : 06;
  137E : 05;
  137F : 04;
  1380 : 05;
  1381 : 05;
  1382 : 04;
  1383 : 05;
  1384 : 05;
  1385 : 05;
  1386 : 05;
  1387 : 05;
  1388 : 05;
  1389 : 05;
  138A : 04;
  138B : 04;
  138C : 04;
  138D : 04;
  138E : 05;
  138F : 05;
  1390 : 04;
  1391 : 04;
  1392 : 04;
  1393 : 04;
  1394 : 04;
  1395 : 04;
  1396 : 04;
  1397 : 04;
  1398 : 05;
  1399 : 05;
  139A : 05;
  139B : 05;
  139C : 05;
  139D : 04;
  139E : 04;
  139F : 04;
  13A0 : 04;
  13A1 : 04;
  13A2 : 04;
  13A3 : 04;
  13A4 : 04;
  13A5 : 03;
  13A6 : 03;
  13A7 : 03;
  13A8 : 04;
  13A9 : 04;
  13AA : 04;
  13AB : 05;
  13AC : 04;
  13AD : 03;
  13AE : 03;
  13AF : 04;
  13B0 : 05;
  13B1 : 05;
  13B2 : 05;
  13B3 : 06;
  13B4 : 07;
  13B5 : 07;
  13B6 : 06;
  13B7 : 05;
  13B8 : 04;
  13B9 : 04;
  13BA : 04;
  13BB : 04;
  13BC : 04;
  13BD : 04;
  13BE : 04;
  13BF : 04;
  13C0 : 04;
  13C1 : 04;
  13C2 : 04;
  13C3 : 04;
  13C4 : 04;
  13C5 : 04;
  13C6 : 04;
  13C7 : 04;
  13C8 : 05;
  13C9 : 05;
  13CA : 05;
  13CB : 06;
  13CC : 06;
  13CD : 07;
  13CE : 07;
  13CF : 06;
  13D0 : 05;
  13D1 : 05;
  13D2 : 05;
  13D3 : 05;
  13D4 : 04;
  13D5 : 04;
  13D6 : 04;
  13D7 : 04;
  13D8 : 04;
  13D9 : 04;
  13DA : 04;
  13DB : 04;
  13DC : 04;
  13DD : 04;
  13DE : 04;
  13DF : 04;
  13E0 : 03;
  13E1 : 04;
  13E2 : 05;
  13E3 : 06;
  13E4 : 06;
  13E5 : 06;
  13E6 : 05;
  13E7 : 05;
  13E8 : 05;
  13E9 : 05;
  13EA : 05;
  13EB : 05;
  13EC : 05;
  13ED : 05;
  13EE : 05;
  13EF : 05;
  13F0 : 03;
  13F1 : 04;
  13F2 : 05;
  13F3 : 05;
  13F4 : 05;
  13F5 : 05;
  13F6 : 05;
  13F7 : 06;
  13F8 : 06;
  13F9 : 05;
  13FA : 04;
  13FB : 04;
  13FC : 05;
  13FD : 05;
  13FE : 05;
  13FF : 05;
  1400 : 06;
  1401 : 06;
  1402 : 05;
  1403 : 06;
  1404 : 06;
  1405 : 06;
  1406 : 05;
  1407 : 04;
  1408 : 04;
  1409 : 04;
  140A : 04;
  140B : 04;
  140C : 04;
  140D : 04;
  140E : 04;
  140F : 04;
  1410 : 04;
  1411 : 04;
  1412 : 04;
  1413 : 04;
  1414 : 04;
  1415 : 04;
  1416 : 05;
  1417 : 05;
  1418 : 05;
  1419 : 06;
  141A : 06;
  141B : 05;
  141C : 04;
  141D : 04;
  141E : 04;
  141F : 04;
  1420 : 04;
  1421 : 04;
  1422 : 04;
  1423 : 04;
  1424 : 05;
  1425 : 05;
  1426 : 05;
  1427 : 04;
  1428 : 02;
  1429 : 04;
  142A : 06;
  142B : 07;
  142C : 06;
  142D : 05;
  142E : 05;
  142F : 05;
  1430 : 04;
  1431 : 04;
  1432 : 04;
  1433 : 04;
  1434 : 04;
  1435 : 04;
  1436 : 04;
  1437 : 04;
  1438 : 05;
  1439 : 05;
  143A : 05;
  143B : 04;
  143C : 04;
  143D : 03;
  143E : 03;
  143F : 02;
  1440 : 04;
  1441 : 06;
  1442 : 06;
  1443 : 04;
  1444 : 03;
  1445 : 03;
  1446 : 04;
  1447 : 04;
  1448 : 05;
  1449 : 05;
  144A : 06;
  144B : 06;
  144C : 05;
  144D : 04;
  144E : 04;
  144F : 04;
  1450 : 04;
  1451 : 04;
  1452 : 04;
  1453 : 03;
  1454 : 04;
  1455 : 04;
  1456 : 05;
  1457 : 05;
  1458 : 04;
  1459 : 04;
  145A : 04;
  145B : 04;
  145C : 04;
  145D : 04;
  145E : 03;
  145F : 03;
  1460 : 04;
  1461 : 04;
  1462 : 04;
  1463 : 05;
  1464 : 04;
  1465 : 03;
  1466 : 04;
  1467 : 05;
  1468 : 05;
  1469 : 04;
  146A : 04;
  146B : 04;
  146C : 04;
  146D : 04;
  146E : 04;
  146F : 03;
  1470 : 04;
  1471 : 04;
  1472 : 04;
  1473 : 03;
  1474 : 04;
  1475 : 04;
  1476 : 04;
  1477 : 05;
  1478 : 04;
  1479 : 04;
  147A : 04;
  147B : 04;
  147C : 05;
  147D : 05;
  147E : 04;
  147F : 03;
  1480 : 03;
  1481 : 04;
  1482 : 04;
  1483 : 05;
  1484 : 04;
  1485 : 04;
  1486 : 04;
  1487 : 04;
  1488 : 06;
  1489 : 05;
  148A : 04;
  148B : 04;
  148C : 05;
  148D : 06;
  148E : 06;
  148F : 06;
  1490 : 05;
  1491 : 05;
  1492 : 05;
  1493 : 06;
  1494 : 05;
  1495 : 05;
  1496 : 04;
  1497 : 03;
  1498 : 05;
  1499 : 06;
  149A : 06;
  149B : 06;
  149C : 05;
  149D : 04;
  149E : 04;
  149F : 04;
  14A0 : 03;
  14A1 : 03;
  14A2 : 03;
  14A3 : 03;
  14A4 : 03;
  14A5 : 03;
  14A6 : 03;
  14A7 : 03;
  14A8 : 04;
  14A9 : 04;
  14AA : 04;
  14AB : 05;
  14AC : 05;
  14AD : 05;
  14AE : 05;
  14AF : 05;
  14B0 : 05;
  14B1 : 05;
  14B2 : 05;
  14B3 : 05;
  14B4 : 05;
  14B5 : 05;
  14B6 : 05;
  14B7 : 05;
  14B8 : 04;
  14B9 : 04;
  14BA : 04;
  14BB : 04;
  14BC : 04;
  14BD : 05;
  14BE : 05;
  14BF : 05;
  14C0 : 05;
  14C1 : 05;
  14C2 : 05;
  14C3 : 05;
  14C4 : 04;
  14C5 : 04;
  14C6 : 04;
  14C7 : 04;
  14C8 : 04;
  14C9 : 03;
  14CA : 03;
  14CB : 04;
  14CC : 05;
  14CD : 04;
  14CE : 03;
  14CF : 03;
  14D0 : 03;
  14D1 : 03;
  14D2 : 03;
  14D3 : 03;
  14D4 : 03;
  14D5 : 03;
  14D6 : 04;
  14D7 : 04;
  14D8 : 03;
  14D9 : 04;
  14DA : 05;
  14DB : 04;
  14DC : 05;
  14DD : 05;
  14DE : 05;
  14DF : 04;
  14E0 : 04;
  14E1 : 03;
  14E2 : 03;
  14E3 : 04;
  14E4 : 05;
  14E5 : 06;
  14E6 : 05;
  14E7 : 05;
  14E8 : 05;
  14E9 : 05;
  14EA : 05;
  14EB : 04;
  14EC : 04;
  14ED : 04;
  14EE : 04;
  14EF : 04;
  14F0 : 03;
  14F1 : 03;
  14F2 : 03;
  14F3 : 03;
  14F4 : 03;
  14F5 : 03;
  14F6 : 03;
  14F7 : 03;
  14F8 : 04;
  14F9 : 04;
  14FA : 04;
  14FB : 04;
  14FC : 04;
  14FD : 04;
  14FE : 04;
  14FF : 04;
  1500 : 04;
  1501 : 04;
  1502 : 04;
  1503 : 04;
  1504 : 04;
  1505 : 05;
  1506 : 05;
  1507 : 05;
  1508 : 04;
  1509 : 04;
  150A : 04;
  150B : 04;
  150C : 05;
  150D : 05;
  150E : 05;
  150F : 04;
  1510 : 05;
  1511 : 04;
  1512 : 04;
  1513 : 04;
  1514 : 05;
  1515 : 05;
  1516 : 05;
  1517 : 05;
  1518 : 05;
  1519 : 04;
  151A : 03;
  151B : 03;
  151C : 04;
  151D : 05;
  151E : 05;
  151F : 05;
  1520 : 05;
  1521 : 05;
  1522 : 05;
  1523 : 06;
  1524 : 06;
  1525 : 05;
  1526 : 05;
  1527 : 05;
  1528 : 05;
  1529 : 05;
  152A : 05;
  152B : 05;
  152C : 05;
  152D : 05;
  152E : 04;
  152F : 03;
  1530 : 04;
  1531 : 04;
  1532 : 05;
  1533 : 05;
  1534 : 04;
  1535 : 03;
  1536 : 03;
  1537 : 04;
  1538 : 04;
  1539 : 04;
  153A : 04;
  153B : 05;
  153C : 04;
  153D : 03;
  153E : 03;
  153F : 04;
  1540 : 06;
  1541 : 05;
  1542 : 04;
  1543 : 04;
  1544 : 06;
  1545 : 06;
  1546 : 06;
  1547 : 05;
  1548 : 05;
  1549 : 04;
  154A : 04;
  154B : 04;
  154C : 04;
  154D : 04;
  154E : 03;
  154F : 03;
  1550 : 03;
  1551 : 04;
  1552 : 04;
  1553 : 04;
  1554 : 04;
  1555 : 04;
  1556 : 04;
  1557 : 04;
  1558 : 05;
  1559 : 05;
  155A : 05;
  155B : 05;
  155C : 06;
  155D : 06;
  155E : 06;
  155F : 06;
  1560 : 04;
  1561 : 04;
  1562 : 04;
  1563 : 04;
  1564 : 04;
  1565 : 04;
  1566 : 04;
  1567 : 04;
  1568 : 03;
  1569 : 03;
  156A : 03;
  156B : 03;
  156C : 04;
  156D : 04;
  156E : 04;
  156F : 04;
  1570 : 03;
  1571 : 04;
  1572 : 05;
  1573 : 05;
  1574 : 06;
  1575 : 06;
  1576 : 06;
  1577 : 05;
  1578 : 05;
  1579 : 05;
  157A : 05;
  157B : 05;
  157C : 05;
  157D : 05;
  157E : 04;
  157F : 04;
  1580 : 04;
  1581 : 05;
  1582 : 06;
  1583 : 06;
  1584 : 05;
  1585 : 05;
  1586 : 05;
  1587 : 06;
  1588 : 06;
  1589 : 05;
  158A : 04;
  158B : 04;
  158C : 05;
  158D : 05;
  158E : 05;
  158F : 05;
  1590 : 05;
  1591 : 05;
  1592 : 05;
  1593 : 06;
  1594 : 07;
  1595 : 07;
  1596 : 06;
  1597 : 05;
  1598 : 04;
  1599 : 04;
  159A : 04;
  159B : 04;
  159C : 04;
  159D : 04;
  159E : 04;
  159F : 04;
  15A0 : 04;
  15A1 : 04;
  15A2 : 04;
  15A3 : 04;
  15A4 : 04;
  15A5 : 04;
  15A6 : 05;
  15A7 : 05;
  15A8 : 06;
  15A9 : 05;
  15AA : 05;
  15AB : 04;
  15AC : 04;
  15AD : 04;
  15AE : 04;
  15AF : 04;
  15B0 : 04;
  15B1 : 04;
  15B2 : 04;
  15B3 : 04;
  15B4 : 05;
  15B5 : 05;
  15B6 : 05;
  15B7 : 04;
  15B8 : 03;
  15B9 : 05;
  15BA : 06;
  15BB : 06;
  15BC : 05;
  15BD : 05;
  15BE : 05;
  15BF : 05;
  15C0 : 05;
  15C1 : 05;
  15C2 : 05;
  15C3 : 05;
  15C4 : 05;
  15C5 : 05;
  15C6 : 05;
  15C7 : 05;
  15C8 : 04;
  15C9 : 04;
  15CA : 04;
  15CB : 04;
  15CC : 04;
  15CD : 04;
  15CE : 03;
  15CF : 03;
  15D0 : 04;
  15D1 : 06;
  15D2 : 06;
  15D3 : 04;
  15D4 : 03;
  15D5 : 04;
  15D6 : 04;
  15D7 : 04;
  15D8 : 05;
  15D9 : 06;
  15DA : 06;
  15DB : 05;
  15DC : 04;
  15DD : 03;
  15DE : 03;
  15DF : 04;
  15E0 : 04;
  15E1 : 04;
  15E2 : 04;
  15E3 : 03;
  15E4 : 04;
  15E5 : 04;
  15E6 : 05;
  15E7 : 05;
  15E8 : 05;
  15E9 : 05;
  15EA : 05;
  15EB : 05;
  15EC : 05;
  15ED : 05;
  15EE : 04;
  15EF : 04;
  15F0 : 04;
  15F1 : 03;
  15F2 : 04;
  15F3 : 05;
  15F4 : 04;
  15F5 : 03;
  15F6 : 04;
  15F7 : 06;
  15F8 : 06;
  15F9 : 05;
  15FA : 05;
  15FB : 05;
  15FC : 05;
  15FD : 05;
  15FE : 05;
  15FF : 04;
  1600 : 04;
  1601 : 04;
  1602 : 04;
  1603 : 04;
  1604 : 04;
  1605 : 04;
  1606 : 04;
  1607 : 05;
  1608 : 04;
  1609 : 04;
  160A : 04;
  160B : 04;
  160C : 05;
  160D : 05;
  160E : 04;
  160F : 03;
  1610 : 04;
  1611 : 04;
  1612 : 05;
  1613 : 05;
  1614 : 05;
  1615 : 04;
  1616 : 05;
  1617 : 05;
  1618 : 07;
  1619 : 04;
  161A : 02;
  161B : 03;
  161C : 05;
  161D : 06;
  161E : 06;
  161F : 06;
  1620 : 05;
  1621 : 06;
  1622 : 06;
  1623 : 06;
  1624 : 06;
  1625 : 05;
  1626 : 04;
  1627 : 03;
  1628 : 04;
  1629 : 05;
  162A : 06;
  162B : 06;
  162C : 05;
  162D : 04;
  162E : 03;
  162F : 03;
  1630 : 04;
  1631 : 04;
  1632 : 04;
  1633 : 04;
  1634 : 04;
  1635 : 04;
  1636 : 04;
  1637 : 04;
  1638 : 05;
  1639 : 06;
  163A : 06;
  163B : 06;
  163C : 07;
  163D : 07;
  163E : 07;
  163F : 06;
  1640 : 05;
  1641 : 05;
  1642 : 05;
  1643 : 05;
  1644 : 05;
  1645 : 05;
  1646 : 05;
  1647 : 05;
  1648 : 04;
  1649 : 04;
  164A : 04;
  164B : 04;
  164C : 05;
  164D : 05;
  164E : 05;
  164F : 06;
  1650 : 07;
  1651 : 06;
  1652 : 06;
  1653 : 06;
  1654 : 05;
  1655 : 05;
  1656 : 04;
  1657 : 04;
  1658 : 04;
  1659 : 03;
  165A : 03;
  165B : 05;
  165C : 05;
  165D : 04;
  165E : 04;
  165F : 04;
  1660 : 04;
  1661 : 04;
  1662 : 04;
  1663 : 03;
  1664 : 03;
  1665 : 03;
  1666 : 03;
  1667 : 03;
  1668 : 04;
  1669 : 05;
  166A : 05;
  166B : 04;
  166C : 04;
  166D : 06;
  166E : 07;
  166F : 06;
  1670 : 05;
  1671 : 04;
  1672 : 03;
  1673 : 04;
  1674 : 06;
  1675 : 06;
  1676 : 05;
  1677 : 03;
  1678 : 04;
  1679 : 04;
  167A : 03;
  167B : 03;
  167C : 03;
  167D : 03;
  167E : 03;
  167F : 04;
  1680 : 03;
  1681 : 03;
  1682 : 03;
  1683 : 03;
  1684 : 03;
  1685 : 03;
  1686 : 03;
  1687 : 03;
  1688 : 04;
  1689 : 04;
  168A : 04;
  168B : 04;
  168C : 04;
  168D : 04;
  168E : 04;
  168F : 04;
  1690 : 03;
  1691 : 03;
  1692 : 04;
  1693 : 04;
  1694 : 05;
  1695 : 05;
  1696 : 05;
  1697 : 05;
  1698 : 04;
  1699 : 04;
  169A : 04;
  169B : 04;
  169C : 05;
  169D : 05;
  169E : 04;
  169F : 04;
  16A0 : 04;
  16A1 : 04;
  16A2 : 04;
  16A3 : 04;
  16A4 : 05;
  16A5 : 06;
  16A6 : 06;
  16A7 : 05;
  16A8 : 05;
  16A9 : 04;
  16AA : 03;
  16AB : 02;
  16AC : 03;
  16AD : 04;
  16AE : 05;
  16AF : 05;
  16B0 : 05;
  16B1 : 06;
  16B2 : 06;
  16B3 : 06;
  16B4 : 06;
  16B5 : 06;
  16B6 : 06;
  16B7 : 05;
  16B8 : 04;
  16B9 : 05;
  16BA : 06;
  16BB : 06;
  16BC : 06;
  16BD : 05;
  16BE : 03;
  16BF : 03;
  16C0 : 04;
  16C1 : 05;
  16C2 : 05;
  16C3 : 05;
  16C4 : 04;
  16C5 : 04;
  16C6 : 04;
  16C7 : 04;
  16C8 : 04;
  16C9 : 04;
  16CA : 04;
  16CB : 05;
  16CC : 04;
  16CD : 03;
  16CE : 03;
  16CF : 04;
  16D0 : 07;
  16D1 : 05;
  16D2 : 03;
  16D3 : 03;
  16D4 : 04;
  16D5 : 06;
  16D6 : 06;
  16D7 : 05;
  16D8 : 05;
  16D9 : 05;
  16DA : 05;
  16DB : 04;
  16DC : 04;
  16DD : 04;
  16DE : 04;
  16DF : 03;
  16E0 : 03;
  16E1 : 03;
  16E2 : 04;
  16E3 : 04;
  16E4 : 04;
  16E5 : 04;
  16E6 : 04;
  16E7 : 04;
  16E8 : 05;
  16E9 : 04;
  16EA : 04;
  16EB : 04;
  16EC : 05;
  16ED : 06;
  16EE : 06;
  16EF : 05;
  16F0 : 03;
  16F1 : 03;
  16F2 : 03;
  16F3 : 03;
  16F4 : 04;
  16F5 : 04;
  16F6 : 04;
  16F7 : 04;
  16F8 : 03;
  16F9 : 03;
  16FA : 03;
  16FB : 04;
  16FC : 04;
  16FD : 04;
  16FE : 04;
  16FF : 04;
  1700 : 04;
  1701 : 04;
  1702 : 04;
  1703 : 05;
  1704 : 05;
  1705 : 06;
  1706 : 06;
  1707 : 06;
  1708 : 06;
  1709 : 06;
  170A : 06;
  170B : 05;
  170C : 05;
  170D : 04;
  170E : 03;
  170F : 03;
  1710 : 05;
  1711 : 05;
  1712 : 06;
  1713 : 06;
  1714 : 06;
  1715 : 06;
  1716 : 06;
  1717 : 06;
  1718 : 06;
  1719 : 04;
  171A : 03;
  171B : 03;
  171C : 04;
  171D : 05;
  171E : 04;
  171F : 04;
  1720 : 04;
  1721 : 04;
  1722 : 04;
  1723 : 05;
  1724 : 07;
  1725 : 08;
  1726 : 07;
  1727 : 05;
  1728 : 04;
  1729 : 04;
  172A : 04;
  172B : 04;
  172C : 04;
  172D : 04;
  172E : 04;
  172F : 04;
  1730 : 04;
  1731 : 04;
  1732 : 04;
  1733 : 04;
  1734 : 04;
  1735 : 04;
  1736 : 05;
  1737 : 05;
  1738 : 06;
  1739 : 05;
  173A : 05;
  173B : 04;
  173C : 04;
  173D : 04;
  173E : 04;
  173F : 04;
  1740 : 04;
  1741 : 04;
  1742 : 04;
  1743 : 05;
  1744 : 06;
  1745 : 06;
  1746 : 06;
  1747 : 05;
  1748 : 04;
  1749 : 05;
  174A : 06;
  174B : 06;
  174C : 04;
  174D : 04;
  174E : 05;
  174F : 06;
  1750 : 06;
  1751 : 06;
  1752 : 06;
  1753 : 06;
  1754 : 06;
  1755 : 05;
  1756 : 05;
  1757 : 05;
  1758 : 04;
  1759 : 04;
  175A : 04;
  175B : 04;
  175C : 04;
  175D : 04;
  175E : 04;
  175F : 04;
  1760 : 04;
  1761 : 05;
  1762 : 05;
  1763 : 04;
  1764 : 03;
  1765 : 04;
  1766 : 05;
  1767 : 04;
  1768 : 05;
  1769 : 06;
  176A : 06;
  176B : 05;
  176C : 04;
  176D : 03;
  176E : 03;
  176F : 03;
  1770 : 05;
  1771 : 04;
  1772 : 04;
  1773 : 03;
  1774 : 04;
  1775 : 04;
  1776 : 05;
  1777 : 06;
  1778 : 05;
  1779 : 05;
  177A : 05;
  177B : 05;
  177C : 05;
  177D : 05;
  177E : 04;
  177F : 04;
  1780 : 03;
  1781 : 03;
  1782 : 04;
  1783 : 05;
  1784 : 05;
  1785 : 04;
  1786 : 04;
  1787 : 06;
  1788 : 07;
  1789 : 06;
  178A : 06;
  178B : 06;
  178C : 06;
  178D : 06;
  178E : 06;
  178F : 05;
  1790 : 04;
  1791 : 04;
  1792 : 04;
  1793 : 04;
  1794 : 04;
  1795 : 04;
  1796 : 04;
  1797 : 04;
  1798 : 04;
  1799 : 04;
  179A : 03;
  179B : 04;
  179C : 05;
  179D : 05;
  179E : 04;
  179F : 03;
  17A0 : 04;
  17A1 : 05;
  17A2 : 06;
  17A3 : 06;
  17A4 : 05;
  17A5 : 05;
  17A6 : 05;
  17A7 : 06;
  17A8 : 07;
  17A9 : 04;
  17AA : 01;
  17AB : 01;
  17AC : 04;
  17AD : 07;
  17AE : 07;
  17AF : 06;
  17B0 : 06;
  17B1 : 06;
  17B2 : 06;
  17B3 : 06;
  17B4 : 06;
  17B5 : 05;
  17B6 : 04;
  17B7 : 03;
  17B8 : 03;
  17B9 : 04;
  17BA : 05;
  17BB : 05;
  17BC : 04;
  17BD : 03;
  17BE : 03;
  17BF : 03;
  17C0 : 04;
  17C1 : 04;
  17C2 : 04;
  17C3 : 04;
  17C4 : 04;
  17C5 : 04;
  17C6 : 04;
  17C7 : 04;
  17C8 : 04;
  17C9 : 04;
  17CA : 05;
  17CB : 05;
  17CC : 05;
  17CD : 05;
  17CE : 05;
  17CF : 05;
  17D0 : 05;
  17D1 : 05;
  17D2 : 05;
  17D3 : 05;
  17D4 : 05;
  17D5 : 05;
  17D6 : 05;
  17D7 : 05;
  17D8 : 04;
  17D9 : 04;
  17DA : 04;
  17DB : 05;
  17DC : 05;
  17DD : 06;
  17DE : 06;
  17DF : 06;
  17E0 : 08;
  17E1 : 07;
  17E2 : 07;
  17E3 : 06;
  17E4 : 06;
  17E5 : 05;
  17E6 : 04;
  17E7 : 04;
  17E8 : 04;
  17E9 : 03;
  17EA : 03;
  17EB : 05;
  17EC : 05;
  17ED : 05;
  17EE : 04;
  17EF : 04;
  17F0 : 05;
  17F1 : 04;
  17F2 : 04;
  17F3 : 03;
  17F4 : 03;
  17F5 : 03;
  17F6 : 03;
  17F7 : 03;
  17F8 : 05;
  17F9 : 06;
  17FA : 05;
  17FB : 03;
  17FC : 04;
  17FD : 06;
  17FE : 08;
  17FF : 08;
  1800 : 07;
  1801 : 05;
  1802 : 03;
  1803 : 04;
  1804 : 07;
  1805 : 07;
  1806 : 05;
  1807 : 02;
  1808 : 05;
  1809 : 05;
  180A : 04;
  180B : 04;
  180C : 04;
  180D : 04;
  180E : 05;
  180F : 05;
  1810 : 04;
  1811 : 04;
  1812 : 04;
  1813 : 04;
  1814 : 04;
  1815 : 04;
  1816 : 04;
  1817 : 04;
  1818 : 04;
  1819 : 04;
  181A : 04;
  181B : 04;
  181C : 04;
  181D : 04;
  181E : 04;
  181F : 04;
  1820 : 03;
  1821 : 03;
  1822 : 03;
  1823 : 04;
  1824 : 05;
  1825 : 05;
  1826 : 05;
  1827 : 06;
  1828 : 05;
  1829 : 04;
  182A : 04;
  182B : 04;
  182C : 05;
  182D : 05;
  182E : 04;
  182F : 04;
  1830 : 04;
  1831 : 04;
  1832 : 03;
  1833 : 04;
  1834 : 05;
  1835 : 06;
  1836 : 06;
  1837 : 05;
  1838 : 06;
  1839 : 04;
  183A : 03;
  183B : 02;
  183C : 03;
  183D : 04;
  183E : 04;
  183F : 04;
  1840 : 06;
  1841 : 06;
  1842 : 06;
  1843 : 06;
  1844 : 06;
  1845 : 06;
  1846 : 06;
  1847 : 06;
  1848 : 04;
  1849 : 05;
  184A : 06;
  184B : 07;
  184C : 06;
  184D : 05;
  184E : 03;
  184F : 02;
  1850 : 04;
  1851 : 05;
  1852 : 06;
  1853 : 05;
  1854 : 04;
  1855 : 04;
  1856 : 04;
  1857 : 05;
  1858 : 04;
  1859 : 04;
  185A : 04;
  185B : 05;
  185C : 04;
  185D : 03;
  185E : 03;
  185F : 04;
  1860 : 07;
  1861 : 05;
  1862 : 02;
  1863 : 02;
  1864 : 03;
  1865 : 05;
  1866 : 05;
  1867 : 05;
  1868 : 05;
  1869 : 05;
  186A : 05;
  186B : 05;
  186C : 04;
  186D : 04;
  186E : 04;
  186F : 04;
  1870 : 03;
  1871 : 03;
  1872 : 04;
  1873 : 04;
  1874 : 04;
  1875 : 04;
  1876 : 04;
  1877 : 04;
  1878 : 05;
  1879 : 04;
  187A : 03;
  187B : 03;
  187C : 04;
  187D : 05;
  187E : 05;
  187F : 05;
  1880 : 03;
  1881 : 03;
  1882 : 03;
  1883 : 03;
  1884 : 04;
  1885 : 04;
  1886 : 04;
  1887 : 04;
  1888 : 04;
  1889 : 04;
  188A : 04;
  188B : 04;
  188C : 04;
  188D : 04;
  188E : 04;
  188F : 04;
  1890 : 04;
  1891 : 04;
  1892 : 04;
  1893 : 04;
  1894 : 05;
  1895 : 05;
  1896 : 06;
  1897 : 06;
  1898 : 06;
  1899 : 06;
  189A : 06;
  189B : 05;
  189C : 05;
  189D : 04;
  189E : 03;
  189F : 02;
  18A0 : 05;
  18A1 : 06;
  18A2 : 07;
  18A3 : 07;
  18A4 : 06;
  18A5 : 06;
  18A6 : 06;
  18A7 : 06;
  18A8 : 05;
  18A9 : 03;
  18AA : 02;
  18AB : 02;
  18AC : 03;
  18AD : 04;
  18AE : 04;
  18AF : 03;
  18B0 : 03;
  18B1 : 03;
  18B2 : 03;
  18B3 : 05;
  18B4 : 07;
  18B5 : 08;
  18B6 : 07;
  18B7 : 05;
  18B8 : 04;
  18B9 : 04;
  18BA : 04;
  18BB : 04;
  18BC : 04;
  18BD : 04;
  18BE : 04;
  18BF : 04;
  18C0 : 04;
  18C1 : 04;
  18C2 : 04;
  18C3 : 04;
  18C4 : 04;
  18C5 : 04;
  18C6 : 05;
  18C7 : 05;
  18C8 : 06;
  18C9 : 05;
  18CA : 04;
  18CB : 04;
  18CC : 04;
  18CD : 04;
  18CE : 04;
  18CF : 04;
  18D0 : 04;
  18D1 : 04;
  18D2 : 04;
  18D3 : 05;
  18D4 : 07;
  18D5 : 07;
  18D6 : 06;
  18D7 : 05;
  18D8 : 05;
  18D9 : 06;
  18DA : 06;
  18DB : 05;
  18DC : 04;
  18DD : 03;
  18DE : 04;
  18DF : 06;
  18E0 : 06;
  18E1 : 06;
  18E2 : 06;
  18E3 : 06;
  18E4 : 06;
  18E5 : 06;
  18E6 : 06;
  18E7 : 05;
  18E8 : 04;
  18E9 : 04;
  18EA : 04;
  18EB : 04;
  18EC : 04;
  18ED : 04;
  18EE : 04;
  18EF : 04;
  18F0 : 04;
  18F1 : 05;
  18F2 : 05;
  18F3 : 04;
  18F4 : 03;
  18F5 : 04;
  18F6 : 05;
  18F7 : 05;
  18F8 : 06;
  18F9 : 06;
  18FA : 06;
  18FB : 05;
  18FC : 03;
  18FD : 02;
  18FE : 02;
  18FF : 03;
  1900 : 06;
  1901 : 05;
  1902 : 03;
  1903 : 03;
  1904 : 04;
  1905 : 04;
  1906 : 05;
  1907 : 05;
  1908 : 05;
  1909 : 05;
  190A : 04;
  190B : 04;
  190C : 05;
  190D : 05;
  190E : 05;
  190F : 04;
  1910 : 03;
  1911 : 04;
  1912 : 05;
  1913 : 06;
  1914 : 05;
  1915 : 03;
  1916 : 03;
  1917 : 05;
  1918 : 06;
  1919 : 07;
  191A : 07;
  191B : 06;
  191C : 05;
  191D : 05;
  191E : 05;
  191F : 06;
  1920 : 05;
  1921 : 05;
  1922 : 04;
  1923 : 04;
  1924 : 04;
  1925 : 04;
  1926 : 04;
  1927 : 05;
  1928 : 04;
  1929 : 04;
  192A : 04;
  192B : 04;
  192C : 04;
  192D : 04;
  192E : 04;
  192F : 04;
  1930 : 05;
  1931 : 05;
  1932 : 05;
  1933 : 05;
  1934 : 05;
  1935 : 05;
  1936 : 05;
  1937 : 05;
  1938 : 04;
  1939 : 03;
  193A : 02;
  193B : 02;
  193C : 03;
  193D : 05;
  193E : 05;
  193F : 05;
  1940 : 06;
  1941 : 06;
  1942 : 06;
  1943 : 05;
  1944 : 04;
  1945 : 03;
  1946 : 02;
  1947 : 01;
  1948 : 03;
  1949 : 04;
  194A : 05;
  194B : 04;
  194C : 03;
  194D : 02;
  194E : 02;
  194F : 03;
  1950 : 03;
  1951 : 03;
  1952 : 03;
  1953 : 03;
[...]
  26B6C : FB;
  26B6D : FC;
  26B6E : FE;
  26B6F : FF;
  26B70 : FE;
  26B71 : FE;
  26B72 : FD;
  26B73 : FB;
  26B74 : F9;
  26B75 : F8;
  26B76 : F9;
  26B77 : FB;
  26B78 : FE;
  26B79 : FC;
  26B7A : FA;
  26B7B : FA;
  26B7C : FC;
  26B7D : FE;
  26B7E : FE;
  26B7F : FD;
  26B80 : FC;
  26B81 : FD;
  26B82 : FF;
  26B83 : FD;
  26B84 : F9;
  26B85 : F5;
  26B86 : EE;
  26B87 : E4;
  26B88 : E7;
  26B89 : E2;
  26B8A : EB;
  26B8B : E9;
  26B8C : E5;
  26B8D : DA;
  26B8E : 9B;
  26B8F : 7F;
  26B90 : C0;
  26B91 : EB;
  26B92 : FA;
  26B93 : FC;
  26B94 : F6;
  26B95 : FC;
  26B96 : FE;
  26B97 : FB;
  26B98 : FD;
  26B99 : FE;
  26B9A : FE;
  26B9B : FF;
  26B9C : FE;
  26B9D : FD;
  26B9E : FD;
  26B9F : FF;
  26BA0 : FD;
  26BA1 : FA;
  26BA2 : F9;
  26BA3 : FA;
  26BA4 : F8;
  26BA5 : EF;
  26BA6 : E5;
  26BA7 : DF;
  26BA8 : D5;
  26BA9 : CB;
  26BAA : C4;
  26BAB : BF;
  26BAC : B8;
  26BAD : B5;
  26BAE : B1;
  26BAF : AA;
  26BB0 : A7;
  26BB1 : A6;
  26BB2 : A2;
  26BB3 : A0;
  26BB4 : A1;
  26BB5 : A2;
  26BB6 : A4;
  26BB7 : AA;
  26BB8 : B3;
  26BB9 : B8;
  26BBA : BE;
  26BBB : C5;
  26BBC : CA;
  26BBD : CC;
  26BBE : CF;
  26BBF : D6;
  26BC0 : DE;
  26BC1 : DF;
  26BC2 : DB;
  26BC3 : D5;
  26BC4 : D0;
  26BC5 : C6;
  26BC6 : BB;
  26BC7 : B5;
  26BC8 : B4;
  26BC9 : B4;
  26BCA : B3;
  26BCB : B1;
  26BCC : B0;
  26BCD : B1;
  26BCE : B3;
  26BCF : B4;
  26BD0 : B7;
  26BD1 : BA;
  26BD2 : C0;
  26BD3 : C5;
  26BD4 : C7;
  26BD5 : C8;
  26BD6 : CB;
  26BD7 : CE;
  26BD8 : D1;
  26BD9 : D3;
  26BDA : D6;
  26BDB : D7;
  26BDC : D8;
  26BDD : D7;
  26BDE : D7;
  26BDF : D7;
  26BE0 : D7;
  26BE1 : D8;
  26BE2 : D9;
  26BE3 : DA;
  26BE4 : DA;
  26BE5 : D9;
  26BE6 : D9;
  26BE7 : D9;
  26BE8 : D8;
  26BE9 : D9;
  26BEA : D9;
  26BEB : D7;
  26BEC : D2;
  26BED : CB;
  26BEE : C6;
  26BEF : C4;
  26BF0 : C0;
  26BF1 : BE;
  26BF2 : BA;
  26BF3 : B8;
  26BF4 : B7;
  26BF5 : B6;
  26BF6 : B2;
  26BF7 : B0;
  26BF8 : AC;
  26BF9 : AB;
  26BFA : A8;
  26BFB : A3;
  26BFC : 9D;
  26BFD : 97;
  26BFE : 91;
  26BFF : 8E;
  26C00 : 8D;
  26C01 : 8C;
  26C02 : 8E;
  26C03 : 91;
  26C04 : 94;
  26C05 : 94;
  26C06 : 93;
  26C07 : 93;
  26C08 : 93;
  26C09 : 91;
  26C0A : 8E;
  26C0B : 8D;
  26C0C : 8D;
  26C0D : 8F;
  26C0E : 94;
  26C0F : 98;
  26C10 : 94;
  26C11 : 95;
  26C12 : 94;
  26C13 : 90;
  26C14 : 8D;
  26C15 : 8A;
  26C16 : 86;
  26C17 : 84;
  26C18 : 82;
  26C19 : 7F;
  26C1A : 7B;
  26C1B : 77;
  26C1C : 74;
  26C1D : 71;
  26C1E : 6D;
  26C1F : 6B;
  26C20 : 63;
  26C21 : 5C;
  26C22 : 58;
  26C23 : 53;
  26C24 : 4D;
  26C25 : 47;
  26C26 : 43;
  26C27 : 3E;
  26C28 : 3A;
  26C29 : 36;
  26C2A : 31;
  26C2B : 2D;
  26C2C : 29;
  26C2D : 26;
  26C2E : 26;
  26C2F : 28;
  26C30 : 2D;
  26C31 : 35;
  26C32 : 3A;
  26C33 : 3D;
  26C34 : 41;
  26C35 : 43;
  26C36 : 45;
  26C37 : 48;
  26C38 : 4C;
  26C39 : 4C;
  26C3A : 4B;
  26C3B : 4A;
  26C3C : 49;
  26C3D : 48;
  26C3E : 46;
  26C3F : 43;
  26C40 : 3F;
  26C41 : 3C;
  26C42 : 38;
  26C43 : 37;
  26C44 : 37;
  26C45 : 36;
  26C46 : 35;
  26C47 : 35;
  26C48 : 35;
  26C49 : 36;
  26C4A : 36;
  26C4B : 36;
  26C4C : 35;
  26C4D : 35;
  26C4E : 36;
  26C4F : 37;
  26C50 : 49;
  26C51 : 44;
  26C52 : 30;
  26C53 : 1E;
  26C54 : 20;
  26C55 : 7D;
  26C56 : D3;
  26C57 : EC;
  26C58 : E1;
  26C59 : D7;
  26C5A : F2;
  26C5B : E8;
  26C5C : DF;
  26C5D : F5;
  26C5E : EF;
  26C5F : F7;
  26C60 : EF;
  26C61 : FC;
  26C62 : F4;
  26C63 : E4;
  26C64 : E5;
  26C65 : DE;
  26C66 : B8;
  26C67 : C3;
  26C68 : EA;
  26C69 : BD;
  26C6A : 36;
  26C6B : 00;
  26C6C : 10;
  26C6D : 11;
  26C6E : 0B;
  26C6F : 10;
  26C70 : 0C;
  26C71 : 0E;
  26C72 : 16;
  26C73 : 15;
  26C74 : 11;
  26C75 : 14;
  26C76 : 16;
  26C77 : 1A;
  26C78 : 21;
  26C79 : 13;
  26C7A : 0B;
  26C7B : 1B;
  26C7C : 11;
  26C7D : 12;
  26C7E : 0E;
  26C7F : 13;
  26C80 : 77;
  26C81 : D1;
  26C82 : E6;
  26C83 : E7;
  26C84 : FB;
  26C85 : EF;
  26C86 : E5;
  26C87 : EE;
  26C88 : E0;
  26C89 : D8;
  26C8A : E0;
  26C8B : E3;
  26C8C : E2;
  26C8D : B0;
  26C8E : 6A;
  26C8F : 44;
  26C90 : 5E;
  26C91 : A8;
  26C92 : AF;
  26C93 : A7;
  26C94 : C8;
  26C95 : D3;
  26C96 : E1;
  26C97 : DB;
  26C98 : E8;
  26C99 : 92;
  26C9A : 07;
  26C9B : 21;
  26C9C : 4E;
  26C9D : 60;
  26C9E : 72;
  26C9F : A8;
  26CA0 : AC;
  26CA1 : B6;
  26CA2 : CA;
  26CA3 : E3;
  26CA4 : D9;
  26CA5 : D6;
  26CA6 : D7;
  26CA7 : EE;
  26CA8 : EF;
  26CA9 : A5;
  26CAA : 77;
  26CAB : 93;
  26CAC : 96;
  26CAD : 96;
  26CAE : 8C;
  26CAF : 88;
  26CB0 : 8A;
  26CB1 : 8F;
  26CB2 : 94;
  26CB3 : A3;
  26CB4 : B6;
  26CB5 : BC;
  26CB6 : C4;
  26CB7 : D6;
  26CB8 : E0;
  26CB9 : E3;
  26CBA : EB;
  26CBB : E8;
  26CBC : E7;
  26CBD : F1;
  26CBE : F6;
  26CBF : F7;
  26CC0 : F8;
  26CC1 : FA;
  26CC2 : FC;
  26CC3 : F9;
  26CC4 : EF;
  26CC5 : E7;
  26CC6 : EA;
  26CC7 : F2;
  26CC8 : F5;
  26CC9 : F8;
  26CCA : FB;
  26CCB : FB;
  26CCC : FB;
  26CCD : FB;
  26CCE : FB;
  26CCF : FA;
  26CD0 : FB;
  26CD1 : FA;
  26CD2 : FB;
  26CD3 : FC;
  26CD4 : FC;
  26CD5 : FA;
  26CD6 : F7;
  26CD7 : F5;
  26CD8 : F5;
  26CD9 : F8;
  26CDA : F9;
  26CDB : F7;
  26CDC : F6;
  26CDD : F8;
  26CDE : FA;
  26CDF : FB;
  26CE0 : FB;
  26CE1 : FB;
  26CE2 : FB;
  26CE3 : FC;
  26CE4 : FC;
  26CE5 : FC;
  26CE6 : FC;
  26CE7 : FC;
  26CE8 : FC;
  26CE9 : FE;
  26CEA : FF;
  26CEB : FF;
  26CEC : FE;
  26CED : FD;
  26CEE : FD;
  26CEF : FD;
  26CF0 : FC;
  26CF1 : FB;
  26CF2 : FB;
  26CF3 : FB;
  26CF4 : FA;
  26CF5 : FA;
  26CF6 : FA;
  26CF7 : FA;
  26CF8 : FC;
  26CF9 : FC;
  26CFA : FD;
  26CFB : FD;
  26CFC : FD;
  26CFD : FD;
  26CFE : FE;
  26CFF : FF;
  26D00 : FD;
  26D01 : FD;
  26D02 : FD;
  26D03 : FB;
  26D04 : F9;
  26D05 : F8;
  26D06 : F9;
  26D07 : FA;
  26D08 : FB;
  26D09 : F9;
  26D0A : F7;
  26D0B : F7;
  26D0C : FA;
  26D0D : FD;
  26D0E : FE;
  26D0F : FD;
  26D10 : FC;
  26D11 : FD;
  26D12 : FF;
  26D13 : FC;
  26D14 : F7;
  26D15 : F4;
  26D16 : EC;
  26D17 : E1;
  26D18 : E2;
  26D19 : E2;
  26D1A : E9;
  26D1B : E7;
  26D1C : DE;
  26D1D : CE;
  26D1E : A8;
  26D1F : AC;
  26D20 : E7;
  26D21 : FC;
  26D22 : F3;
  26D23 : F8;
  26D24 : FD;
  26D25 : F7;
  26D26 : F9;
  26D27 : FB;
  26D28 : FE;
  26D29 : FE;
  26D2A : FE;
  26D2B : FF;
  26D2C : FE;
  26D2D : FD;
  26D2E : FD;
  26D2F : FE;
  26D30 : FC;
  26D31 : FA;
  26D32 : F8;
  26D33 : F8;
  26D34 : F6;
  26D35 : F1;
  26D36 : EB;
  26D37 : E7;
  26D38 : DC;
  26D39 : D4;
  26D3A : CD;
  26D3B : C7;
  26D3C : C1;
  26D3D : BB;
  26D3E : B5;
  26D3F : AE;
  26D40 : AB;
  26D41 : AA;
  26D42 : A7;
  26D43 : A7;
  26D44 : AA;
  26D45 : AB;
  26D46 : AF;
  26D47 : B6;
  26D48 : BF;
  26D49 : C2;
  26D4A : C5;
  26D4B : CA;
  26D4C : CF;
  26D4D : CF;
  26D4E : D0;
  26D4F : D6;
  26D50 : E0;
  26D51 : E2;
  26D52 : DF;
  26D53 : D9;
  26D54 : D3;
  26D55 : C9;
  26D56 : BD;
  26D57 : B8;
  26D58 : B9;
  26D59 : BA;
  26D5A : BA;
  26D5B : B9;
  26D5C : B8;
  26D5D : B8;
  26D5E : BA;
  26D5F : BA;
  26D60 : BE;
  26D61 : C0;
  26D62 : C5;
  26D63 : CA;
  26D64 : CB;
  26D65 : CC;
  26D66 : CF;
  26D67 : D2;
  26D68 : D6;
  26D69 : D8;
  26D6A : DB;
  26D6B : DD;
  26D6C : DD;
  26D6D : DB;
  26D6E : DB;
  26D6F : DB;
  26D70 : DB;
  26D71 : DB;
  26D72 : DB;
  26D73 : DC;
  26D74 : DB;
  26D75 : DB;
  26D76 : DA;
  26D77 : DA;
  26D78 : D8;
  26D79 : D8;
  26D7A : D7;
  26D7B : D6;
  26D7C : D2;
  26D7D : CB;
  26D7E : C6;
  26D7F : C5;
  26D80 : C2;
  26D81 : C0;
  26D82 : BE;
  26D83 : BD;
  26D84 : BC;
  26D85 : BA;
  26D86 : B6;
  26D87 : B3;
  26D88 : B1;
  26D89 : AF;
  26D8A : AB;
  26D8B : A7;
  26D8C : A0;
  26D8D : 99;
  26D8E : 93;
  26D8F : 8E;
  26D90 : 8F;
  26D91 : 8E;
  26D92 : 90;
  26D93 : 94;
  26D94 : 97;
  26D95 : 97;
  26D96 : 97;
  26D97 : 9A;
  26D98 : 98;
  26D99 : 96;
  26D9A : 95;
  26D9B : 94;
  26D9C : 94;
  26D9D : 94;
  26D9E : 98;
  26D9F : 9C;
  26DA0 : 9A;
  26DA1 : 9B;
  26DA2 : 9A;
  26DA3 : 96;
  26DA4 : 91;
  26DA5 : 8C;
  26DA6 : 88;
  26DA7 : 87;
  26DA8 : 85;
  26DA9 : 82;
  26DAA : 7E;
  26DAB : 79;
  26DAC : 76;
  26DAD : 73;
  26DAE : 70;
  26DAF : 6E;
  26DB0 : 66;
  26DB1 : 61;
  26DB2 : 5D;
  26DB3 : 5A;
  26DB4 : 53;
  26DB5 : 4F;
  26DB6 : 4B;
  26DB7 : 46;
  26DB8 : 3C;
  26DB9 : 38;
  26DBA : 33;
  26DBB : 2F;
  26DBC : 2B;
  26DBD : 27;
  26DBE : 28;
  26DBF : 2B;
  26DC0 : 32;
  26DC1 : 39;
  26DC2 : 3E;
  26DC3 : 41;
  26DC4 : 44;
  26DC5 : 46;
  26DC6 : 48;
  26DC7 : 4B;
  26DC8 : 4B;
  26DC9 : 4C;
  26DCA : 4B;
  26DCB : 4A;
  26DCC : 49;
  26DCD : 48;
  26DCE : 45;
  26DCF : 41;
  26DD0 : 3E;
  26DD1 : 3A;
  26DD2 : 38;
  26DD3 : 37;
  26DD4 : 37;
  26DD5 : 35;
  26DD6 : 34;
  26DD7 : 34;
  26DD8 : 34;
  26DD9 : 35;
  26DDA : 36;
  26DDB : 35;
  26DDC : 35;
  26DDD : 35;
  26DDE : 36;
  26DDF : 36;
  26DE0 : 49;
  26DE1 : 3D;
  26DE2 : 13;
  26DE3 : 33;
  26DE4 : 87;
  26DE5 : D5;
  26DE6 : EC;
  26DE7 : DA;
  26DE8 : E6;
  26DE9 : D8;
  26DEA : E4;
  26DEB : EB;
  26DEC : E4;
  26DED : EB;
  26DEE : F2;
  26DEF : ED;
  26DF0 : EA;
  26DF1 : F2;
  26DF2 : EA;
  26DF3 : ED;
  26DF4 : DF;
  26DF5 : D6;
  26DF6 : EA;
  26DF7 : E9;
  26DF8 : 96;
  26DF9 : 26;
  26DFA : 00;
  26DFB : 20;
  26DFC : 15;
  26DFD : 06;
  26DFE : 1A;
  26DFF : 17;
  26E00 : 15;
  26E01 : 16;
  26E02 : 1E;
  26E03 : 1E;
  26E04 : 1A;
  26E05 : 19;
  26E06 : 17;
  26E07 : 18;
  26E08 : 11;
  26E09 : 1C;
  26E0A : 1B;
  26E0B : 1C;
  26E0C : 1D;
  26E0D : 21;
  26E0E : 14;
  26E0F : 12;
  26E10 : 3E;
  26E11 : A5;
  26E12 : E4;
  26E13 : E9;
  26E14 : EB;
  26E15 : EF;
  26E16 : EC;
  26E17 : E2;
  26E18 : EA;
  26E19 : DF;
  26E1A : DF;
  26E1B : E1;
  26E1C : B0;
  26E1D : 5E;
  26E1E : 3C;
  26E1F : 74;
  26E20 : 76;
  26E21 : 82;
  26E22 : B9;
  26E23 : C8;
  26E24 : D3;
  26E25 : D2;
  26E26 : E6;
  26E27 : F2;
  26E28 : D3;
  26E29 : 38;
  26E2A : 0B;
  26E2B : 54;
  26E2C : 93;
  26E2D : 80;
  26E2E : 93;
  26E2F : A9;
  26E30 : C3;
  26E31 : C5;
  26E32 : C9;
  26E33 : D7;
  26E34 : D9;
  26E35 : EE;
  26E36 : F8;
  26E37 : F1;
  26E38 : C5;
  26E39 : 78;
  26E3A : 59;
  26E3B : 7B;
  26E3C : 83;
  26E3D : 7C;
  26E3E : 73;
  26E3F : 7F;
  26E40 : 7F;
  26E41 : 87;
  26E42 : 93;
  26E43 : AB;
  26E44 : C3;
  26E45 : C9;
  26E46 : CF;
  26E47 : DF;
  26E48 : E2;
  26E49 : E4;
  26E4A : EC;
  26E4B : EB;
  26E4C : EB;
  26E4D : F7;
  26E4E : FC;
  26E4F : FB;
  26E50 : F8;
  26E51 : F9;
  26E52 : FB;
  26E53 : FC;
  26E54 : F8;
  26E55 : F5;
  26E56 : F6;
  26E57 : F9;
  26E58 : F9;
  26E59 : F9;
  26E5A : FA;
  26E5B : FC;
  26E5C : FD;
  26E5D : FB;
  26E5E : FB;
  26E5F : FB;
  26E60 : FB;
  26E61 : FB;
  26E62 : FB;
  26E63 : FB;
  26E64 : FC;
  26E65 : FC;
  26E66 : FB;
  26E67 : F9;
  26E68 : F9;
  26E69 : FD;
  26E6A : FE;
  26E6B : FC;
  26E6C : FA;
  26E6D : FC;
  26E6E : FD;
  26E6F : FC;
  26E70 : FB;
  26E71 : FC;
  26E72 : FC;
  26E73 : FC;
  26E74 : FC;
  26E75 : FC;
  26E76 : FC;
  26E77 : FC;
  26E78 : FC;
  26E79 : FC;
  26E7A : FD;
  26E7B : FD;
  26E7C : FD;
  26E7D : FD;
  26E7E : FE;
  26E7F : FE;
  26E80 : F9;
  26E81 : FA;
  26E82 : FB;
  26E83 : FB;
  26E84 : FA;
  26E85 : FA;
  26E86 : FB;
  26E87 : FC;
  26E88 : FB;
  26E89 : FC;
  26E8A : FD;
  26E8B : FD;
  26E8C : FD;
  26E8D : FD;
  26E8E : FE;
  26E8F : FF;
  26E90 : FD;
  26E91 : FC;
  26E92 : FC;
  26E93 : FB;
  26E94 : FB;
  26E95 : FA;
  26E96 : FA;
  26E97 : FB;
  26E98 : FA;
  26E99 : F7;
  26E9A : F4;
  26E9B : F5;
  26E9C : F9;
  26E9D : FC;
  26E9E : FD;
  26E9F : FD;
  26EA0 : FE;
  26EA1 : FF;
  26EA2 : FF;
  26EA3 : FC;
  26EA4 : F8;
  26EA5 : F5;
  26EA6 : ED;
  26EA7 : E1;
  26EA8 : E3;
  26EA9 : EA;
  26EAA : EB;
  26EAB : EC;
  26EAC : D7;
  26EAD : C0;
  26EAE : C7;
  26EAF : DE;
  26EB0 : FE;
  26EB1 : FB;
  26EB2 : F8;
  26EB3 : FC;
  26EB4 : FF;
  26EB5 : FD;
  26EB6 : FD;
  26EB7 : FF;
  26EB8 : FE;
  26EB9 : FE;
  26EBA : FE;
  26EBB : FE;
  26EBC : FE;
  26EBD : FE;
  26EBE : FE;
  26EBF : FD;
  26EC0 : FC;
  26EC1 : FB;
  26EC2 : F9;
  26EC3 : F7;
  26EC4 : F5;
  26EC5 : F3;
  26EC6 : EF;
  26EC7 : EB;
  26EC8 : E4;
  26EC9 : DF;
  26ECA : D8;
  26ECB : D2;
  26ECC : CC;
  26ECD : C5;
  26ECE : BD;
  26ECF : B7;
  26ED0 : B2;
  26ED1 : B0;
  26ED2 : AE;
  26ED3 : AF;
  26ED4 : B3;
  26ED5 : B4;
  26ED6 : B8;
  26ED7 : BF;
  26ED8 : CA;
  26ED9 : CB;
  26EDA : CC;
  26EDB : D0;
  26EDC : D5;
  26EDD : D5;
  26EDE : D5;
  26EDF : DA;
  26EE0 : E2;
  26EE1 : E5;
  26EE2 : E2;
  26EE3 : DB;
  26EE4 : D5;
  26EE5 : CC;
  26EE6 : C1;
  26EE7 : BC;
  26EE8 : C1;
  26EE9 : C3;
  26EEA : C4;
  26EEB : C2;
  26EEC : C1;
  26EED : C2;
  26EEE : C3;
  26EEF : C3;
  26EF0 : C2;
  26EF1 : C5;
  26EF2 : C9;
  26EF3 : CD;
  26EF4 : CF;
  26EF5 : CF;
  26EF6 : D2;
  26EF7 : D5;
  26EF8 : D9;
  26EF9 : DC;
  26EFA : E0;
  26EFB : E2;
  26EFC : E1;
  26EFD : E0;
  26EFE : DF;
  26EFF : DF;
  26F00 : DD;
  26F01 : DD;
  26F02 : DD;
  26F03 : DC;
  26F04 : DC;
  26F05 : DB;
  26F06 : DB;
  26F07 : DA;
  26F08 : D9;
  26F09 : D7;
  26F0A : D5;
  26F0B : D4;
  26F0C : D1;
  26F0D : CB;
  26F0E : C7;
  26F0F : C5;
  26F10 : C3;
  26F11 : C2;
  26F12 : C0;
  26F13 : BF;
  26F14 : BF;
  26F15 : BE;
  26F16 : BB;
  26F17 : B8;
  26F18 : B7;
  26F19 : B4;
  26F1A : B0;
  26F1B : AB;
  26F1C : A5;
  26F1D : 9D;
  26F1E : 96;
  26F1F : 91;
  26F20 : 90;
  26F21 : 90;
  26F22 : 93;
  26F23 : 97;
  26F24 : 99;
  26F25 : 99;
  26F26 : 9B;
  26F27 : A0;
  26F28 : 9D;
  26F29 : 9C;
  26F2A : 9C;
  26F2B : 9B;
  26F2C : 9A;
  26F2D : 99;
  26F2E : 9C;
  26F2F : 9F;
  26F30 : 9D;
  26F31 : 9D;
  26F32 : 9C;
  26F33 : 99;
  26F34 : 95;
  26F35 : 90;
  26F36 : 8D;
  26F37 : 8B;
  26F38 : 89;
  26F39 : 86;
  26F3A : 82;
  26F3B : 7E;
  26F3C : 7A;
  26F3D : 77;
  26F3E : 75;
  26F3F : 74;
  26F40 : 6A;
  26F41 : 66;
  26F42 : 63;
  26F43 : 60;
  26F44 : 5A;
  26F45 : 56;
  26F46 : 52;
  26F47 : 4C;
  26F48 : 46;
  26F49 : 40;
  26F4A : 39;
  26F4B : 36;
  26F4C : 33;
  26F4D : 2F;
  26F4E : 30;
  26F4F : 33;
  26F50 : 35;
  26F51 : 3C;
  26F52 : 41;
  26F53 : 44;
  26F54 : 47;
  26F55 : 48;
  26F56 : 49;
  26F57 : 4C;
  26F58 : 4B;
  26F59 : 4B;
  26F5A : 4B;
  26F5B : 4A;
  26F5C : 49;
  26F5D : 48;
  26F5E : 44;
  26F5F : 40;
  26F60 : 3D;
  26F61 : 3A;
  26F62 : 36;
  26F63 : 35;
  26F64 : 35;
  26F65 : 34;
  26F66 : 34;
  26F67 : 34;
  26F68 : 34;
  26F69 : 35;
  26F6A : 35;
  26F6B : 35;
  26F6C : 35;
  26F6D : 35;
  26F6E : 36;
  26F6F : 37;
  26F70 : 44;
  26F71 : 22;
  26F72 : 25;
  26F73 : 8B;
  26F74 : EA;
  26F75 : E6;
  26F76 : D3;
  26F77 : E3;
  26F78 : EA;
  26F79 : D8;
  26F7A : E8;
  26F7B : E7;
  26F7C : E8;
  26F7D : F0;
  26F7E : E8;
  26F7F : F0;
  26F80 : EF;
  26F81 : ED;
  26F82 : EB;
  26F83 : EC;
  26F84 : DC;
  26F85 : D7;
  26F86 : D2;
  26F87 : 7B;
  26F88 : 18;
  26F89 : 0C;
  26F8A : 0B;
  26F8B : 0C;
  26F8C : 1A;
  26F8D : 16;
  26F8E : 15;
  26F8F : 1D;
  26F90 : 1E;
  26F91 : 1A;
  26F92 : 1F;
  26F93 : 1F;
  26F94 : 1C;
  26F95 : 1B;
  26F96 : 18;
  26F97 : 19;
  26F98 : 1A;
  26F99 : 11;
  26F9A : 1F;
  26F9B : 19;
  26F9C : 1E;
  26F9D : 25;
  26F9E : 13;
  26F9F : 16;
  26FA0 : 1A;
  26FA1 : 8D;
  26FA2 : DC;
  26FA3 : E2;
  26FA4 : EB;
  26FA5 : F0;
  26FA6 : DE;
  26FA7 : DA;
  26FA8 : F6;
  26FA9 : E2;
  26FAA : DE;
  26FAB : C1;
  26FAC : 5B;
  26FAD : 44;
  26FAE : 5B;
  26FAF : 84;
  26FB0 : 8D;
  26FB1 : 82;
  26FB2 : C8;
  26FB3 : C6;
  26FB4 : C4;
  26FB5 : E8;
  26FB6 : EA;
  26FB7 : D8;
  26FB8 : 62;
  26FB9 : 3F;
  26FBA : 7C;
  26FBB : AA;
  26FBC : 92;
  26FBD : AA;
  26FBE : BD;
  26FBF : A6;
  26FC0 : C8;
  26FC1 : DF;
  26FC2 : D5;
  26FC3 : D3;
  26FC4 : E7;
  26FC5 : EC;
  26FC6 : EC;
  26FC7 : F0;
  26FC8 : A1;
  26FC9 : 59;
  26FCA : 45;
  26FCB : 64;
  26FCC : 6B;
  26FCD : 5D;
  26FCE : 58;
  26FCF : 79;
  26FD0 : 72;
  26FD1 : 7A;
  26FD2 : 8A;
  26FD3 : A9;
  26FD4 : C6;
  26FD5 : CD;
  26FD6 : D1;
  26FD7 : E0;
  26FD8 : E3;
  26FD9 : E4;
  26FDA : EC;
  26FDB : EC;
  26FDC : EE;
  26FDD : FB;
  26FDE : FE;
  26FDF : FA;
  26FE0 : F9;
  26FE1 : F9;
  26FE2 : FA;
  26FE3 : FD;
  26FE4 : FF;
  26FE5 : FE;
  26FE6 : FC;
  26FE7 : FA;
  26FE8 : FB;
  26FE9 : F9;
  26FEA : FA;
  26FEB : FD;
  26FEC : FE;
  26FED : FD;
  26FEE : FC;
  26FEF : FE;
  26FF0 : FD;
  26FF1 : FC;
  26FF2 : FA;
  26FF3 : FA;
  26FF4 : FB;
  26FF5 : FC;
  26FF6 : FB;
  26FF7 : FA;
  26FF8 : FA;
  26FF9 : FE;
  26FFA : FF;
  26FFB : FE;
  26FFC : FD;
  26FFD : FF;
  26FFE : FF;
  26FFF : FD;
  27000 : FB;
  27001 : FC;
  27002 : FC;
  27003 : FC;
  27004 : FC;
  27005 : FC;
  27006 : FC;
  27007 : FB;
  27008 : FD;
  27009 : FC;
  2700A : FB;
  2700B : FB;
  2700C : FC;
  2700D : FC;
  2700E : FC;
  2700F : FB;
  27010 : F8;
  27011 : FB;
  27012 : FD;
  27013 : FD;
  27014 : FC;
  27015 : FB;
  27016 : FB;
  27017 : FC;
  27018 : FB;
  27019 : FC;
  2701A : FD;
  2701B : FE;
  2701C : FE;
  2701D : FE;
  2701E : FF;
  2701F : FF;
  27020 : FC;
  27021 : FC;
  27022 : FC;
  27023 : FC;
  27024 : FC;
  27025 : FC;
  27026 : FC;
  27027 : FC;
  27028 : FB;
  27029 : F8;
  2702A : F5;
  2702B : F6;
  2702C : FA;
  2702D : FE;
  2702E : FE;
  2702F : FE;
  27030 : FD;
  27031 : FE;
  27032 : FF;
  27033 : FB;
  27034 : F7;
  27035 : F5;
  27036 : ED;
  27037 : E1;
  27038 : DE;
  27039 : E7;
  2703A : E3;
  2703B : F0;
  2703C : D9;
  2703D : BB;
  2703E : D7;
  2703F : E7;
  27040 : FC;
  27041 : F3;
  27042 : FF;
  27043 : FC;
  27044 : FE;
  27045 : FF;
  27046 : FF;
  27047 : FD;
  27048 : FE;
  27049 : FE;
  2704A : FE;
  2704B : FE;
  2704C : FE;
  2704D : FF;
  2704E : FE;
  2704F : FD;
  27050 : FC;
  27051 : FC;
  27052 : F9;
  27053 : F6;
  27054 : F5;
  27055 : F5;
  27056 : F1;
  27057 : EC;
  27058 : E5;
  27059 : E1;
  2705A : DB;
  2705B : D5;
  2705C : D0;
  2705D : C8;
  2705E : BF;
  2705F : BA;
  27060 : B6;
  27061 : B4;
  27062 : B2;
  27063 : B3;
  27064 : B6;
  27065 : B7;
  27066 : BA;
  27067 : C1;
  27068 : CE;
  27069 : CE;
  2706A : CE;
  2706B : D2;
  2706C : D7;
  2706D : D7;
  2706E : D8;
  2706F : DC;
  27070 : E3;
  27071 : E5;
  27072 : E3;
  27073 : DD;
  27074 : D7;
  27075 : CF;
  27076 : C6;
  27077 : C2;
  27078 : C0;
  27079 : C3;
  2707A : C4;
  2707B : C3;
  2707C : C2;
  2707D : C2;
  2707E : C3;
  2707F : C3;
  27080 : C5;
  27081 : C7;
  27082 : CC;
  27083 : D0;
  27084 : D1;
  27085 : D2;
  27086 : D4;
  27087 : D7;
  27088 : DB;
  27089 : DE;
  2708A : E3;
  2708B : E5;
  2708C : E4;
  2708D : E3;
  2708E : E2;
  2708F : E2;
  27090 : DF;
  27091 : DE;
  27092 : DD;
  27093 : DC;
  27094 : DB;
  27095 : DB;
  27096 : DA;
  27097 : DA;
  27098 : DB;
  27099 : D7;
  2709A : D4;
  2709B : D2;
  2709C : CF;
  2709D : CB;
  2709E : C8;
  2709F : C6;
  270A0 : C4;
  270A1 : C2;
  270A2 : C0;
  270A3 : C0;
  270A4 : C1;
  270A5 : C0;
  270A6 : BE;
  270A7 : BC;
  270A8 : BA;
  270A9 : B8;
  270AA : B4;
  270AB : AF;
  270AC : A8;
  270AD : A0;
  270AE : 99;
  270AF : 94;
  270B0 : 92;
  270B1 : 92;
  270B2 : 96;
  270B3 : 99;
  270B4 : 9A;
  270B5 : 9A;
  270B6 : 9E;
  270B7 : A4;
  270B8 : A2;
  270B9 : A1;
  270BA : A0;
  270BB : 9F;
  270BC : 9D;
  270BD : 9C;
  270BE : 9E;
  270BF : A1;
  270C0 : 9F;
  270C1 : 9D;
  270C2 : 9B;
  270C3 : 99;
  270C4 : 97;
  270C5 : 94;
  270C6 : 90;
  270C7 : 8E;
  270C8 : 8C;
  270C9 : 89;
  270CA : 86;
  270CB : 82;
  270CC : 7F;
  270CD : 7D;
  270CE : 7B;
  270CF : 7A;
  270D0 : 6F;
  270D1 : 6B;
  270D2 : 69;
  270D3 : 65;
  270D4 : 5E;
  270D5 : 5A;
  270D6 : 56;
  270D7 : 50;
  270D8 : 4A;
  270D9 : 42;
  270DA : 3B;
  270DB : 38;
  270DC : 36;
  270DD : 33;
  270DE : 33;
  270DF : 35;
  270E0 : 37;
  270E1 : 3E;
  270E2 : 43;
  270E3 : 45;
  270E4 : 48;
  270E5 : 49;
  270E6 : 4A;
  270E7 : 4D;
  270E8 : 4C;
  270E9 : 4C;
  270EA : 4C;
  270EB : 4B;
  270EC : 4A;
  270ED : 49;
  270EE : 44;
  270EF : 40;
  270F0 : 3D;
  270F1 : 39;
  270F2 : 35;
  270F3 : 33;
  270F4 : 33;
  270F5 : 33;
  270F6 : 33;
  270F7 : 34;
  270F8 : 34;
  270F9 : 34;
  270FA : 35;
  270FB : 36;
  270FC : 35;
  270FD : 36;
  270FE : 36;
  270FF : 37;
END;
